

        *** GPGPU-Sim Simulator Version 3.2.2  [build 17315] ***


GPGPU-Sim PTX: simulation mode 0 (can change with PTX_SIM_MODE_FUNC environment variable:
               1=functional simulation only, 0=detailed performance simulator)
GPGPU-Sim: Configuration options:

-network_mode                           1 # Interconnection network mode
-inter_config_file   config_fermi_islip.icnt # Interconnection network config file
-gpgpu_ptx_use_cuobjdump                    1 # Use cuobjdump to extract ptx and sass from binaries
-gpgpu_experimental_lib_support                    0 # Try to extract code from cuda libraries [Broken because of unknown cudaGetExportTable]
-gpgpu_ptx_convert_to_ptxplus                    0 # Convert SASS (native ISA) to ptxplus and run ptxplus
-gpgpu_ptx_force_max_capability                   20 # Force maximum compute capability
-gpgpu_ptx_inst_debug_to_file                    0 # Dump executed instructions' debug information to file
-gpgpu_ptx_inst_debug_file       inst_debug.txt # Executed instructions' debug output file
-gpgpu_ptx_inst_debug_thread_uid                    1 # Thread UID for executed instructions' debug output
-gpgpu_simd_model                       1 # 1 = post-dominator
-gpgpu_shader_core_pipeline              1536:32 # shader core pipeline config, i.e., {<nthread>:<warpsize>}
-gpgpu_tex_cache:l1  4:128:24,L:R:m:N,F:128:4,128:2 # per-shader L1 texture cache  (READ-ONLY) config  {<nsets>:<bsize>:<assoc>,<rep>:<wr>:<alloc>:<wr_alloc>,<mshr>:<N>:<merge>,<mq>:<rf>}
-gpgpu_const_cache:l1 64:64:2,L:R:f:N,A:2:32,4 # per-shader L1 constant memory cache  (READ-ONLY) config  {<nsets>:<bsize>:<assoc>,<rep>:<wr>:<alloc>:<wr_alloc>,<mshr>:<N>:<merge>,<mq>} 
-gpgpu_cache:il1     4:128:4,L:R:f:N,A:2:32,4 # shader L1 instruction cache config  {<nsets>:<bsize>:<assoc>,<rep>:<wr>:<alloc>:<wr_alloc>,<mshr>:<N>:<merge>,<mq>} 
-gpgpu_cache:dl1     32:128:4,L:L:m:N,A:32:8,8 # per-shader L1 data cache config  {<nsets>:<bsize>:<assoc>,<rep>:<wr>:<alloc>:<wr_alloc>,<mshr>:<N>:<merge>,<mq> | none}
-gpgpu_cache:dl1PrefL1                 none # per-shader L1 data cache config  {<nsets>:<bsize>:<assoc>,<rep>:<wr>:<alloc>:<wr_alloc>,<mshr>:<N>:<merge>,<mq> | none}
-gpgpu_cache:dl1PreShared                 none # per-shader L1 data cache config  {<nsets>:<bsize>:<assoc>,<rep>:<wr>:<alloc>:<wr_alloc>,<mshr>:<N>:<merge>,<mq> | none}
-gmem_skip_L1D                          0 # global memory access skip L1D cache (implements -Xptxas -dlcm=cg, default=no skip)
-gpgpu_perfect_mem                      0 # enable perfect memory mode (no cache miss)
-n_regfile_gating_group                    4 # group of lanes that should be read/written together)
-gpgpu_clock_gated_reg_file                    0 # enable clock gated reg file for power calculations
-gpgpu_clock_gated_lanes                    0 # enable clock gated lanes for power calculations
-gpgpu_shader_registers                32768 # Number of registers per shader core. Limits number of concurrent CTAs. (default 8192)
-gpgpu_shader_cta                       8 # Maximum number of concurrent CTAs in shader (default 8)
-gpgpu_n_clusters                      15 # number of processing clusters
-gpgpu_n_cores_per_cluster                    1 # number of simd cores per cluster
-gpgpu_n_cluster_ejection_buffer_size                    8 # number of packets in ejection buffer
-gpgpu_n_ldst_response_buffer_size                    2 # number of response packets in ld/st unit ejection buffer
-gpgpu_shmem_size                   16384 # Size of shared memory per shader core (default 16kB)
-gpgpu_shmem_size                   49152 # Size of shared memory per shader core (default 16kB)
-gpgpu_shmem_size_PrefL1                16384 # Size of shared memory per shader core (default 16kB)
-gpgpu_shmem_size_PrefShared                16384 # Size of shared memory per shader core (default 16kB)
-gpgpu_shmem_num_banks                   32 # Number of banks in the shared memory in each shader core (default 16)
-gpgpu_shmem_limited_broadcast                    0 # Limit shared memory to do one broadcast per cycle (default on)
-gpgpu_shmem_warp_parts                    1 # Number of portions a warp is divided into for shared memory bank conflict check 
-gpgpu_warpdistro_shader                   -1 # Specify which shader core to collect the warp size distribution from
-gpgpu_warp_issue_shader                    0 # Specify which shader core to collect the warp issue distribution from
-gpgpu_local_mem_map                    1 # Mapping from local memory space address to simulated GPU physical address space (default = enabled)
-gpgpu_num_reg_banks                   16 # Number of register banks (default = 8)
-gpgpu_reg_bank_use_warp_id                    0 # Use warp ID in mapping registers to banks (default = off)
-gpgpu_operand_collector_num_units_sp                    6 # number of collector units (default = 4)
-gpgpu_operand_collector_num_units_sfu                    8 # number of collector units (default = 4)
-gpgpu_operand_collector_num_units_mem                    2 # number of collector units (default = 2)
-gpgpu_operand_collector_num_units_gen                    0 # number of collector units (default = 0)
-gpgpu_operand_collector_num_in_ports_sp                    2 # number of collector unit in ports (default = 1)
-gpgpu_operand_collector_num_in_ports_sfu                    1 # number of collector unit in ports (default = 1)
-gpgpu_operand_collector_num_in_ports_mem                    1 # number of collector unit in ports (default = 1)
-gpgpu_operand_collector_num_in_ports_gen                    0 # number of collector unit in ports (default = 0)
-gpgpu_operand_collector_num_out_ports_sp                    2 # number of collector unit in ports (default = 1)
-gpgpu_operand_collector_num_out_ports_sfu                    1 # number of collector unit in ports (default = 1)
-gpgpu_operand_collector_num_out_ports_mem                    1 # number of collector unit in ports (default = 1)
-gpgpu_operand_collector_num_out_ports_gen                    0 # number of collector unit in ports (default = 0)
-gpgpu_coalesce_arch                   13 # Coalescing arch (default = 13, anything else is off for now)
-gpgpu_num_sched_per_core                    2 # Number of warp schedulers per core
-gpgpu_max_insn_issue_per_warp                    1 # Max number of instructions that can be issued per warp in one cycle by scheduler
-gpgpu_simt_core_sim_order                    1 # Select the simulation order of cores in a cluster (0=Fix, 1=Round-Robin)
-gpgpu_pipeline_widths        2,1,1,2,1,1,2 # Pipeline widths ID_OC_SP,ID_OC_SFU,ID_OC_MEM,OC_EX_SP,OC_EX_SFU,OC_EX_MEM,EX_WB
-gpgpu_num_sp_units                     2 # Number of SP units (default=1)
-gpgpu_num_sfu_units                    1 # Number of SF units (default=1)
-gpgpu_num_mem_units                    1 # Number if ldst units (default=1) WARNING: not hooked up to anything
-gpgpu_scheduler                      gto # Scheduler configuration: < lrr | gto | two_level_active > If two_level_active:<num_active_warps>:<inner_prioritization>:<outer_prioritization>For complete list of prioritization values see shader.h enum scheduler_prioritization_typeDefault: gto
-gpgpu_dram_scheduler                    1 # 0 = fifo, 1 = FR-FCFS (defaul)
-gpgpu_dram_partition_queues              8:8:8:8 # i2$:$2d:d2$:$2i
-l2_ideal                               0 # Use a ideal L2 cache that always hit
-gpgpu_cache:dl2     64:128:8,L:B:m:W,A:32:4,4:0,32 # unified banked L2 data cache config  {<nsets>:<bsize>:<assoc>,<rep>:<wr>:<alloc>:<wr_alloc>,<mshr>:<N>:<merge>,<mq>}
-gpgpu_cache:dl2_texture_only                    0 # L2 cache used for texture only
-gpgpu_n_mem                            6 # number of memory modules (e.g. memory controllers) in gpu
-gpgpu_n_sub_partition_per_mchannel                    2 # number of memory subpartition in each memory module
-gpgpu_n_mem_per_ctrlr                    2 # number of memory chips per memory controller
-gpgpu_memlatency_stat                   14 # track and display latency statistics 0x2 enables MC, 0x4 enables queue logs
-gpgpu_frfcfs_dram_sched_queue_size                   16 # 0 = unlimited (default); # entries per chip
-gpgpu_dram_return_queue_size                  116 # 0 = unlimited (default); # entries per chip
-gpgpu_dram_buswidth                    4 # default = 4 bytes (8 bytes per cycle at DDR)
-gpgpu_dram_burst_length                    8 # Burst length of each DRAM request (default = 4 data bus cycle)
-dram_data_command_freq_ratio                    4 # Frequency ratio between DRAM data bus and command bus (default = 2 times, i.e. DDR)
-gpgpu_dram_timing_opt nbk=16:CCD=2:RRD=6:RCD=12:RAS=28:RP=12:RC=40: CL=12:WL=4:CDLR=5:WR=12:nbkgrp=4:CCDL=3:RTPL=2 # DRAM timing parameters = {nbk:tCCD:tRRD:tRCD:tRAS:tRP:tRC:CL:WL:tCDLR:tWR:nbkgrp:tCCDL:tRTPL}
-rop_latency                          120 # ROP queue latency (default 85)
-dram_latency                         100 # DRAM latency (default 30)
-gpgpu_mem_addr_mapping dramid@8;00000000.00000000.00000000.00000000.0000RRRR.RRRRRRRR.BBBCCCCB.CCSSSSSS # mapping memory address to dram model {dramid@<start bit>;<memory address map>}
-gpgpu_mem_addr_test                    0 # run sweep test to check address mapping for aliased address
-gpgpu_mem_address_mask                    1 # 0 = old addressing mask, 1 = new addressing mask, 2 = new add. mask + flipped bank sel and chip sel bits
-gpuwattch_xml_file  gpuwattch_gtx480.xml # GPUWattch XML file
-power_simulation_enabled                    0 # Turn on power simulator (1=On, 0=Off)
-power_per_cycle_dump                    0 # Dump detailed power output each cycle
-power_trace_enabled                    0 # produce a file for the power trace (1=On, 0=Off)
-power_trace_zlevel                     6 # Compression level of the power trace output log (0=no comp, 9=highest)
-steady_power_levels_enabled                    0 # produce a file for the steady power levels (1=On, 0=Off)
-steady_state_definition                  8:4 # allowed deviation:number of samples
-gpgpu_max_cycle                        0 # terminates gpu simulation early (0 = no limit)
-gpgpu_max_insn                         0 # terminates gpu simulation early (0 = no limit)
-gpgpu_max_cta                          0 # terminates gpu simulation early (0 = no limit)
-gpgpu_runtime_stat                   500 # display runtime statistics such as dram utilization {<freq>:<flag>}
-liveness_message_freq                    1 # Minimum number of seconds between simulation liveness messages (0 = always print)
-gpgpu_flush_l1_cache                    0 # Flush L1 cache at the end of each kernel call
-gpgpu_flush_l2_cache                    0 # Flush L2 cache at the end of each kernel call
-gpgpu_deadlock_detect                    1 # Stop the simulation at deadlock (1=on (default), 0=off)
-gpgpu_ptx_instruction_classification                    0 # if enabled will classify ptx instruction types per kernel (Max 255 kernels now)
-gpgpu_ptx_sim_mode                     0 # Select between Performance (default) or Functional simulation (1)
-gpgpu_clock_domains 700.0:700.0:700.0:924.0 # Clock Domain Frequencies in MhZ {<Core Clock>:<ICNT Clock>:<L2 Clock>:<DRAM Clock>}
-gpgpu_max_concurrent_kernel                    8 # maximum kernels that can run concurrently on GPU
-gpgpu_cflog_interval                    0 # Interval between each snapshot in control flow logger
-visualizer_enabled                     0 # Turn on visualizer output (1=On, 0=Off)
-visualizer_outputfile                 NULL # Specifies the output log file for visualizer
-visualizer_zlevel                      6 # Compression level of the visualizer output log (0=no comp, 9=highest)
-trace_enabled                          0 # Turn on traces
-trace_components                    none # comma seperated list of traces to enable. Complete list found in trace_streams.tup. Default none
-trace_sampling_core                    0 # The core which is printed using CORE_DPRINTF. Default 0
-trace_sampling_memory_partition                   -1 # The memory partition which is printed using MEMPART_DPRINTF. Default -1 (i.e. all)
-enable_ptx_file_line_stats                    1 # Turn on PTX source line statistic profiling. (1 = On)
-ptx_line_stats_filename gpgpu_inst_stats.txt # Output file for PTX source line statistics.
-save_embedded_ptx                      0 # saves ptx files embedded in binary as <n>.ptx
-keep                                   0 # keep intermediate files created by GPGPU-Sim when interfacing with external programs
-gpgpu_ptx_save_converted_ptxplus                    0 # Saved converted ptxplus to a file
-ptx_opcode_latency_int         4,13,4,5,145 # Opcode latencies for integers <ADD,MAX,MUL,MAD,DIV>Default 1,1,19,25,145
-ptx_opcode_latency_fp          4,13,4,5,39 # Opcode latencies for single precision floating points <ADD,MAX,MUL,MAD,DIV>Default 1,1,1,1,30
-ptx_opcode_latency_dp         8,19,8,8,330 # Opcode latencies for double precision floating points <ADD,MAX,MUL,MAD,DIV>Default 8,8,8,8,335
-ptx_opcode_initiation_int            1,2,2,1,8 # Opcode initiation intervals for integers <ADD,MAX,MUL,MAD,DIV>Default 1,1,4,4,32
-ptx_opcode_initiation_fp            1,2,1,1,4 # Opcode initiation intervals for single precision floating points <ADD,MAX,MUL,MAD,DIV>Default 1,1,1,1,5
-ptx_opcode_initiation_dp         8,16,8,8,130 # Opcode initiation intervals for double precision floating points <ADD,MAX,MUL,MAD,DIV>Default 8,8,8,8,130
DRAM Timing Options:
nbk                                    16 # number of banks
CCD                                     2 # column to column delay
RRD                                     6 # minimal delay between activation of rows in different banks
RCD                                    12 # row to column delay
RAS                                    28 # time needed to activate row
RP                                     12 # time needed to precharge (deactivate) row
RC                                     40 # row cycle time
CDLR                                    5 # switching from write to read (changes tWTR)
WR                                     12 # last data-in to row precharge
CL                                     12 # CAS latency
WL                                      4 # Write latency
nbkgrp                                  4 # number of bank groups
CCDL                                    3 # column to column delay between accesses to different bank groups
RTPL                                    2 # read to precharge delay between accesses to different bank groups
Total number of memory sub partition = 12
addr_dec_mask[CHIP]  = 0000000000000000 	high:64 low:0
addr_dec_mask[BK]    = 000000000000e100 	high:16 low:8
addr_dec_mask[ROW]   = 000000000fff0000 	high:28 low:16
addr_dec_mask[COL]   = 0000000000001eff 	high:13 low:0
addr_dec_mask[BURST] = 000000000000003f 	high:6 low:0
sub_partition_id_mask = 0000000000000100
GPGPU-Sim uArch: clock freqs: 700000000.000000:700000000.000000:700000000.000000:924000000.000000
GPGPU-Sim uArch: clock periods: 0.00000000142857142857:0.00000000142857142857:0.00000000142857142857:0.00000000108225108225
*** Initializing Memory Statistics ***
GPGPU-Sim uArch: interconnect node map (shaderID+MemID to icntID)
GPGPU-Sim uArch: Memory nodes ID start from index: 15
GPGPU-Sim uArch:    0   1   2   3   4
GPGPU-Sim uArch:    5   6   7   8   9
GPGPU-Sim uArch:   10  11  12  13  14
GPGPU-Sim uArch:   15  16  17  18  19
GPGPU-Sim uArch:   20  21  22  23  24
GPGPU-Sim uArch:   25  26
GPGPU-Sim uArch: interconnect node reverse map (icntID to shaderID+MemID)
GPGPU-Sim uArch: Memory nodes start from ID: 15
GPGPU-Sim uArch:    0   1   2   3   4
GPGPU-Sim uArch:    5   6   7   8   9
GPGPU-Sim uArch:   10  11  12  13  14
GPGPU-Sim uArch:   15  16  17  18  19
GPGPU-Sim uArch:   20  21  22  23  24
GPGPU-Sim uArch:   25  26
2274def22c61ad1e836c0c06100c42f7  /home/nagarwal/ff-apps/CoMD/CoMDCUDA
GPGPU-Sim uArch: performance model initialization complete.
GPGPU-Sim PTX: __cudaRegisterFatBinary, fat_cubin_handle = 1, filename=timestep_kernels.cu
self exe links to: /home/nagarwal/ff-apps/CoMD/CoMDCUDA
Running md5sum using "md5sum /home/nagarwal/ff-apps/CoMD/CoMDCUDA "
Running cuobjdump using "$CUDA_INSTALL_PATH/bin/cuobjdump -ptx -elf -sass /home/nagarwal/ff-apps/CoMD/CoMDCUDA > _cuobjdump_complete_output_0nPSYS"
Parsing file _cuobjdump_complete_output_0nPSYS
######### cuobjdump parser ########
## Adding new section PTX
Adding ptx filename: _cuobjdump_1.ptx
Adding arch: sm_20
Adding identifier: compute_force_kernels.cu
## Adding new section PTX
Adding ptx filename: _cuobjdump_2.ptx
Adding arch: sm_20
Adding identifier: timestep_kernels.cu
Done parsing!!!
GPGPU-Sim PTX: __cudaRegisterFunction _Z16AdvancePositions5sim_t : hostFun 0x0x409540, fat_cubin_handle = 1
GPGPU-Sim PTX: instruction assembly for function '_Z15AdvanceVelocity5sim_t'...   done.
GPGPU-Sim PTX: finding reconvergence points for '_Z15AdvanceVelocity5sim_t'...
GPGPU-Sim PTX: Finding dominators for '_Z15AdvanceVelocity5sim_t'...
GPGPU-Sim PTX: Finding immediate dominators for '_Z15AdvanceVelocity5sim_t'...
GPGPU-Sim PTX: Finding postdominators for '_Z15AdvanceVelocity5sim_t'...
GPGPU-Sim PTX: Finding immediate postdominators for '_Z15AdvanceVelocity5sim_t'...
GPGPU-Sim PTX: pre-decoding instructions for '_Z15AdvanceVelocity5sim_t'...
GPGPU-Sim PTX: reconvergence points for _Z15AdvanceVelocity5sim_t...
GPGPU-Sim PTX:  1 (potential) branch divergence @  PC=0x020 (_1.ptx:34) @%p1 bra BB0_8;
GPGPU-Sim PTX:    immediate post dominator      @  PC=0x210 (_1.ptx:128) ret;
GPGPU-Sim PTX:  2 (potential) branch divergence @  PC=0x068 (_1.ptx:48) @%p2 bra BB0_7;
GPGPU-Sim PTX:    immediate post dominator      @  PC=0x1f0 (_1.ptx:120) add.s32 %r42, %r11, %r42;
GPGPU-Sim PTX:  3 (potential) branch divergence @  PC=0x0a0 (_1.ptx:59) @%p3 bra BB0_7;
GPGPU-Sim PTX:    immediate post dominator      @  PC=0x1f0 (_1.ptx:120) add.s32 %r42, %r11, %r42;
GPGPU-Sim PTX:  4 (potential) branch divergence @  PC=0x0d0 (_1.ptx:68) @%p4 bra BB0_7;
GPGPU-Sim PTX:    immediate post dominator      @  PC=0x1f0 (_1.ptx:120) add.s32 %r42, %r11, %r42;
GPGPU-Sim PTX:  5 (potential) branch divergence @  PC=0x100 (_1.ptx:77) @%p5 bra BB0_7;
GPGPU-Sim PTX:    immediate post dominator      @  PC=0x1f0 (_1.ptx:120) add.s32 %r42, %r11, %r42;
GPGPU-Sim PTX:  6 (potential) branch divergence @  PC=0x208 (_1.ptx:124) @%p6 bra BB0_2;
GPGPU-Sim PTX:    immediate post dominator      @  PC=0x210 (_1.ptx:128) ret;
GPGPU-Sim PTX: ... end of reconvergence points for _Z15AdvanceVelocity5sim_t
GPGPU-Sim PTX: ... done pre-decoding instructions for '_Z15AdvanceVelocity5sim_t'.
GPGPU-Sim PTX: instruction assembly for function '_Z16AdvancePositions5sim_t'...   done.
GPGPU-Sim PTX: finding reconvergence points for '_Z16AdvancePositions5sim_t'...
GPGPU-Sim PTX: Finding dominators for '_Z16AdvancePositions5sim_t'...
GPGPU-Sim PTX: Finding immediate dominators for '_Z16AdvancePositions5sim_t'...
GPGPU-Sim PTX: Finding postdominators for '_Z16AdvancePositions5sim_t'...
GPGPU-Sim PTX: Finding immediate postdominators for '_Z16AdvancePositions5sim_t'...
GPGPU-Sim PTX: pre-decoding instructions for '_Z16AdvancePositions5sim_t'...
GPGPU-Sim PTX: reconvergence points for _Z16AdvancePositions5sim_t...
GPGPU-Sim PTX:  1 (potential) branch divergence @  PC=0x238 (_1.ptx:149) @%p1 bra BB1_8;
GPGPU-Sim PTX:    immediate post dominator      @  PC=0x438 (_1.ptx:245) ret;
GPGPU-Sim PTX:  2 (potential) branch divergence @  PC=0x2a0 (_1.ptx:169) @%p2 bra BB1_7;
GPGPU-Sim PTX:    immediate post dominator      @  PC=0x418 (_1.ptx:237) add.s32 %r42, %r11, %r42;
GPGPU-Sim PTX:  3 (potential) branch divergence @  PC=0x2d8 (_1.ptx:180) @%p3 bra BB1_7;
GPGPU-Sim PTX:    immediate post dominator      @  PC=0x418 (_1.ptx:237) add.s32 %r42, %r11, %r42;
GPGPU-Sim PTX:  4 (potential) branch divergence @  PC=0x308 (_1.ptx:189) @%p4 bra BB1_7;
GPGPU-Sim PTX:    immediate post dominator      @  PC=0x418 (_1.ptx:237) add.s32 %r42, %r11, %r42;
GPGPU-Sim PTX:  5 (potential) branch divergence @  PC=0x338 (_1.ptx:198) @%p5 bra BB1_7;
GPGPU-Sim PTX:    immediate post dominator      @  PC=0x418 (_1.ptx:237) add.s32 %r42, %r11, %r42;
GPGPU-Sim PTX:  6 (potential) branch divergence @  PC=0x430 (_1.ptx:241) @%p6 bra BB1_2;
GPGPU-Sim PTX:    immediate post dominator      @  PC=0x438 (_1.ptx:245) ret;
GPGPU-Sim PTX: ... end of reconvergence points for _Z16AdvancePositions5sim_t
GPGPU-Sim PTX: ... done pre-decoding instructions for '_Z16AdvancePositions5sim_t'.
GPGPU-Sim PTX: finished parsing EMBEDDED .ptx file _1.ptx
Adding _cuobjdump_2.ptx with cubin handle 1
GPGPU-Sim PTX: extracting embedded .ptx to temporary file "_ptx_LbT8aw"
Running: cat _ptx_LbT8aw | sed 's/.version 1.5/.version 1.4/' | sed 's/, texmode_independent//' | sed 's/\(\.extern \.const\[1\] .b8 \w\+\)\[\]/\1\[1\]/' | sed 's/const\[.\]/const\[0\]/g' > _ptx2_CbQIn9
GPGPU-Sim PTX: generating ptxinfo using "$CUDA_INSTALL_PATH/bin/ptxas --gpu-name=sm_20 -v _ptx2_CbQIn9 --output-file  /dev/null 2> _ptx_LbT8awinfo"
GPGPU-Sim PTX: Kernel '_Z15AdvanceVelocity5sim_t' : regs=25, lmem=0, smem=0, cmem=608
GPGPU-Sim PTX: Kernel '_Z16AdvancePositions5sim_t' : regs=23, lmem=0, smem=0, cmem=624
GPGPU-Sim PTX: removing ptxinfo using "rm -f _ptx_LbT8aw _ptx2_CbQIn9 _ptx_LbT8awinfo"
GPGPU-Sim PTX: loading globals with explicit initializers... 
GPGPU-Sim PTX: finished loading globals (0 bytes total).
GPGPU-Sim PTX: loading constants with explicit initializers...  done.
GPGPU-Sim PTX: __cudaRegisterFunction _Z15AdvanceVelocity5sim_t : hostFun 0x0x4095a0, fat_cubin_handle = 1
GPGPU-Sim PTX: __cudaRegisterFatBinary, fat_cubin_handle = 2, filename=compute_force_kernels.cu
GPGPU-Sim PTX: __cudaRegisterFunction _Z21EAM_Force_cta_box_aggILi3EEv5sim_t : hostFun 0x0x408b70, fat_cubin_handle = 2
GPGPU-Sim PTX: allocating shared region for "smem" from 0x0 to 0x0 (shared memory space)
GPGPU-Sim PTX: instruction assembly for function '_Z28_Z_intrinsic_pseudo_syncwarpv'...   done.
GPGPU-Sim PTX: finding reconvergence points for '_Z28_Z_intrinsic_pseudo_syncwarpv'...
GPGPU-Sim PTX: Finding dominators for '_Z28_Z_intrinsic_pseudo_syncwarpv'...
GPGPU-Sim PTX: Finding immediate dominators for '_Z28_Z_intrinsic_pseudo_syncwarpv'...
GPGPU-Sim PTX: Finding postdominators for '_Z28_Z_intrinsic_pseudo_syncwarpv'...
GPGPU-Sim PTX: Finding immediate postdominators for '_Z28_Z_intrinsic_pseudo_syncwarpv'...
GPGPU-Sim PTX: pre-decoding instructions for '_Z28_Z_intrinsic_pseudo_syncwarpv'...
GPGPU-Sim PTX: reconvergence points for _Z28_Z_intrinsic_pseudo_syncwarpv...
GPGPU-Sim PTX: ... end of reconvergence points for _Z28_Z_intrinsic_pseudo_syncwarpv
GPGPU-Sim PTX: ... done pre-decoding instructions for '_Z28_Z_intrinsic_pseudo_syncwarpv'.
GPGPU-Sim PTX: allocating stack frame region for .param "func_retval0" from 0x0 to 0x8
GPGPU-Sim PTX: allocating stack frame region for .param "_Z10fast_rsqrtd_param_0" from 0x8 to 0x10
GPGPU-Sim PTX: instruction assembly for function '_Z10fast_rsqrtd'...   done.
GPGPU-Sim PTX: finding reconvergence points for '_Z10fast_rsqrtd'...
GPGPU-Sim PTX: Finding dominators for '_Z10fast_rsqrtd'...
GPGPU-Sim PTX: Finding immediate dominators for '_Z10fast_rsqrtd'...
GPGPU-Sim PTX: Finding postdominators for '_Z10fast_rsqrtd'...
GPGPU-Sim PTX: Finding immediate postdominators for '_Z10fast_rsqrtd'...
GPGPU-Sim PTX: pre-decoding instructions for '_Z10fast_rsqrtd'...
GPGPU-Sim PTX: reconvergence points for _Z10fast_rsqrtd...
GPGPU-Sim PTX: ... end of reconvergence points for _Z10fast_rsqrtd
GPGPU-Sim PTX: ... done pre-decoding instructions for '_Z10fast_rsqrtd'.
GPGPU-Sim PTX: allocating stack frame region for .param "func_retval0" from 0x0 to 0x4
GPGPU-Sim PTX: allocating stack frame region for .param "_Z10fast_rsqrtf_param_0" from 0x4 to 0x8
GPGPU-Sim PTX: instruction assembly for function '_Z10fast_rsqrtf'...   done.
GPGPU-Sim PTX: finding reconvergence points for '_Z10fast_rsqrtf'...
GPGPU-Sim PTX: Finding dominators for '_Z10fast_rsqrtf'...
GPGPU-Sim PTX: Finding immediate dominators for '_Z10fast_rsqrtf'...
GPGPU-Sim PTX: Finding postdominators for '_Z10fast_rsqrtf'...
GPGPU-Sim PTX: Finding immediate postdominators for '_Z10fast_rsqrtf'...
GPGPU-Sim PTX: pre-decoding instructions for '_Z10fast_rsqrtf'...
GPGPU-Sim PTX: reconvergence points for _Z10fast_rsqrtf...
GPGPU-Sim PTX: ... end of reconvergence points for _Z10fast_rsqrtf
GPGPU-Sim PTX: ... done pre-decoding instructions for '_Z10fast_rsqrtf'.
GPGPU-Sim PTX: allocating stack frame region for .param "func_retval0" from 0x0 to 0x4
GPGPU-Sim PTX: allocating stack frame region for .param "_Z3bfijjjj_param_0" from 0x4 to 0x8
GPGPU-Sim PTX: allocating stack frame region for .param "_Z3bfijjjj_param_1" from 0x8 to 0xc
GPGPU-Sim PTX: allocating stack frame region for .param "_Z3bfijjjj_param_2" from 0xc to 0x10
GPGPU-Sim PTX: allocating stack frame region for .param "_Z3bfijjjj_param_3" from 0x10 to 0x14
GPGPU-Sim PTX: instruction assembly for function '_Z3bfijjjj'...   done.
GPGPU-Sim PTX: finding reconvergence points for '_Z3bfijjjj'...
GPGPU-Sim PTX: Finding dominators for '_Z3bfijjjj'...
GPGPU-Sim PTX: Finding immediate dominators for '_Z3bfijjjj'...
GPGPU-Sim PTX: Finding postdominators for '_Z3bfijjjj'...
GPGPU-Sim PTX: Finding immediate postdominators for '_Z3bfijjjj'...
GPGPU-Sim PTX: pre-decoding instructions for '_Z3bfijjjj'...
GPGPU-Sim PTX: reconvergence points for _Z3bfijjjj...
GPGPU-Sim PTX: ... end of reconvergence points for _Z3bfijjjj
GPGPU-Sim PTX: ... done pre-decoding instructions for '_Z3bfijjjj'.
GPGPU-Sim PTX: allocating stack frame region for .param "_Z7ljForcedPd_param_0" from 0x0 to 0x8
GPGPU-Sim PTX: allocating stack frame region for .param "_Z7ljForcedPd_param_1" from 0x8 to 0x10
GPGPU-Sim PTX: instruction assembly for function '_Z7ljForcedPd'...   done.
GPGPU-Sim PTX: finding reconvergence points for '_Z7ljForcedPd'...
GPGPU-Sim PTX: Finding dominators for '_Z7ljForcedPd'...
GPGPU-Sim PTX: Finding immediate dominators for '_Z7ljForcedPd'...
GPGPU-Sim PTX: Finding postdominators for '_Z7ljForcedPd'...
GPGPU-Sim PTX: Finding immediate postdominators for '_Z7ljForcedPd'...
GPGPU-Sim PTX: pre-decoding instructions for '_Z7ljForcedPd'...
GPGPU-Sim PTX: reconvergence points for _Z7ljForcedPd...
GPGPU-Sim PTX: ... end of reconvergence points for _Z7ljForcedPd
GPGPU-Sim PTX: ... done pre-decoding instructions for '_Z7ljForcedPd'.
GPGPU-Sim PTX: allocating stack frame region for .param "_Z19eamInterpolateDerivdPKdiPdS1__param_0" from 0x0 to 0x8
GPGPU-Sim PTX: allocating stack frame region for .param "_Z19eamInterpolateDerivdPKdiPdS1__param_1" from 0x8 to 0x10
GPGPU-Sim PTX: allocating stack frame region for .param "_Z19eamInterpolateDerivdPKdiPdS1__param_2" from 0x10 to 0x14
GPGPU-Sim PTX: allocating stack frame region for .param "_Z19eamInterpolateDerivdPKdiPdS1__param_3" from 0x14 to 0x1c
GPGPU-Sim PTX: allocating stack frame region for .param "_Z19eamInterpolateDerivdPKdiPdS1__param_4" from 0x1c to 0x24
GPGPU-Sim PTX: instruction assembly for function '_Z19eamInterpolateDerivdPKdiPdS1_'...   done.
GPGPU-Sim PTX: finding reconvergence points for '_Z19eamInterpolateDerivdPKdiPdS1_'...
GPGPU-Sim PTX: Finding dominators for '_Z19eamInterpolateDerivdPKdiPdS1_'...
GPGPU-Sim PTX: Finding immediate dominators for '_Z19eamInterpolateDerivdPKdiPdS1_'...
GPGPU-Sim PTX: Finding postdominators for '_Z19eamInterpolateDerivdPKdiPdS1_'...
GPGPU-Sim PTX: Finding immediate postdominators for '_Z19eamInterpolateDerivdPKdiPdS1_'...
GPGPU-Sim PTX: pre-decoding instructions for '_Z19eamInterpolateDerivdPKdiPdS1_'...
GPGPU-Sim PTX: reconvergence points for _Z19eamInterpolateDerivdPKdiPdS1_...
GPGPU-Sim PTX:  1 (potential) branch divergence @  PC=0x570 (_2.ptx:152) @%p1 bra BB5_2;
GPGPU-Sim PTX:    immediate post dominator      @  PC=0x5a8 (_2.ptx:165) mov.f64 %fd6, %fd29;
GPGPU-Sim PTX:  2 (potential) branch divergence @  PC=0x598 (_2.ptx:159) bra.uni BB5_3;
GPGPU-Sim PTX:    immediate post dominator      @  PC=0x5a8 (_2.ptx:165) mov.f64 %fd6, %fd29;
GPGPU-Sim PTX: ... end of reconvergence points for _Z19eamInterpolateDerivdPKdiPdS1_
GPGPU-Sim PTX: ... done pre-decoding instructions for '_Z19eamInterpolateDerivdPKdiPdS1_'.
GPGPU-Sim PTX: allocating stack frame region for .param "func_retval0" from 0x0 to 0x8
GPGPU-Sim PTX: allocating stack frame region for .param "_Z6chebev16potentialarray_td_param_0" from 0x8 to 0x30
GPGPU-Sim PTX: allocating stack frame region for .param "_Z6chebev16potentialarray_td_param_1" from 0x30 to 0x38
GPGPU-Sim PTX: instruction assembly for function '_Z6chebev16potentialarray_td'...   done.
GPGPU-Sim PTX: finding reconvergence points for '_Z6chebev16potentialarray_td'...
GPGPU-Sim PTX: Finding dominators for '_Z6chebev16potentialarray_td'...
GPGPU-Sim PTX: Finding immediate dominators for '_Z6chebev16potentialarray_td'...
GPGPU-Sim PTX: Finding postdominators for '_Z6chebev16potentialarray_td'...
GPGPU-Sim PTX: Finding immediate postdominators for '_Z6chebev16potentialarray_td'...
GPGPU-Sim PTX: pre-decoding instructions for '_Z6chebev16potentialarray_td'...
GPGPU-Sim PTX: reconvergence points for _Z6chebev16potentialarray_td...
GPGPU-Sim PTX:  1 (potential) branch divergence @  PC=0x720 (_2.ptx:246) @%p1 bra BB6_2;
GPGPU-Sim PTX:    immediate post dominator      @  PC=0x7d0 (_2.ptx:280) neg.f64 %fd22, %fd30;
GPGPU-Sim PTX:  2 (potential) branch divergence @  PC=0x738 (_2.ptx:250) bra.uni BB6_5;
GPGPU-Sim PTX:    immediate post dominator      @  PC=0x7d0 (_2.ptx:280) neg.f64 %fd22, %fd30;
GPGPU-Sim PTX:  3 (potential) branch divergence @  PC=0x7b8 (_2.ptx:273) @%p2 bra BB6_3;
GPGPU-Sim PTX:    immediate post dominator      @  PC=0x7c0 (_2.ptx:275) mov.f64 %fd30, %fd4;
GPGPU-Sim PTX: ... end of reconvergence points for _Z6chebev16potentialarray_td
GPGPU-Sim PTX: ... done pre-decoding instructions for '_Z6chebev16potentialarray_td'.
GPGPU-Sim PTX: allocating stack frame region for .param "_Z10cta_reduceRdPVd_param_0" from 0x0 to 0x8
GPGPU-Sim PTX: allocating stack frame region for .param "_Z10cta_reduceRdPVd_param_1" from 0x8 to 0x10
GPGPU-Sim PTX: instruction assembly for function '_Z10cta_reduceRdPVd'...   done.
GPGPU-Sim PTX: finding reconvergence points for '_Z10cta_reduceRdPVd'...
GPGPU-Sim PTX: Finding dominators for '_Z10cta_reduceRdPVd'...
GPGPU-Sim PTX: Finding immediate dominators for '_Z10cta_reduceRdPVd'...
GPGPU-Sim PTX: Finding postdominators for '_Z10cta_reduceRdPVd'...
GPGPU-Sim PTX: Finding immediate postdominators for '_Z10cta_reduceRdPVd'...
GPGPU-Sim PTX: pre-decoding instructions for '_Z10cta_reduceRdPVd'...
GPGPU-Sim PTX: reconvergence points for _Z10cta_reduceRdPVd...
GPGPU-Sim PTX:  1 (potential) branch divergence @  PC=0x850 (_2.ptx:314) @%p1 bra BB7_2;
GPGPU-Sim PTX:    immediate post dominator      @  PC=0x878 (_2.ptx:324) bar.sync 0;
GPGPU-Sim PTX:  2 (potential) branch divergence @  PC=0x890 (_2.ptx:329) @%p2 bra BB7_4;
GPGPU-Sim PTX:    immediate post dominator      @  PC=0x8b8 (_2.ptx:339) bar.sync 0;
GPGPU-Sim PTX:  3 (potential) branch divergence @  PC=0x8d0 (_2.ptx:344) @%p3 bra BB7_6;
GPGPU-Sim PTX:    immediate post dominator      @ 
GPGPU-Sim PTX: ... end of reconvergence points for _Z10cta_reduceRdPVd
GPGPU-Sim PTX: ... done pre-decoding instructions for '_Z10cta_reduceRdPVd'.
GPGPU-Sim PTX: allocating stack frame region for .param "_Z16warp_reduce_shflRd_param_0" from 0x0 to 0x8
GPGPU-Sim PTX: instruction assembly for function '_Z16warp_reduce_shflRd'...   done.
GPGPU-Sim PTX: finding reconvergence points for '_Z16warp_reduce_shflRd'...
GPGPU-Sim PTX: Finding dominators for '_Z16warp_reduce_shflRd'...
GPGPU-Sim PTX: Finding immediate dominators for '_Z16warp_reduce_shflRd'...
GPGPU-Sim PTX: Finding postdominators for '_Z16warp_reduce_shflRd'...
GPGPU-Sim PTX: Finding immediate postdominators for '_Z16warp_reduce_shflRd'...
GPGPU-Sim PTX: pre-decoding instructions for '_Z16warp_reduce_shflRd'...
GPGPU-Sim PTX: reconvergence points for _Z16warp_reduce_shflRd...
GPGPU-Sim PTX: ... end of reconvergence points for _Z16warp_reduce_shflRd
GPGPU-Sim PTX: ... done pre-decoding instructions for '_Z16warp_reduce_shflRd'.
GPGPU-Sim PTX: allocating stack frame region for .param "func_retval0" from 0x0 to 0x8
GPGPU-Sim PTX: allocating stack frame region for .param "_Z8sqrt_optIdET_S0__param_0" from 0x8 to 0x10
GPGPU-Sim PTX: instruction assembly for function '_Z8sqrt_optIdET_S0_'...   done.
GPGPU-Sim PTX: finding reconvergence points for '_Z8sqrt_optIdET_S0_'...
GPGPU-Sim PTX: Finding dominators for '_Z8sqrt_optIdET_S0_'...
GPGPU-Sim PTX: Finding immediate dominators for '_Z8sqrt_optIdET_S0_'...
GPGPU-Sim PTX: Finding postdominators for '_Z8sqrt_optIdET_S0_'...
GPGPU-Sim PTX: Finding immediate postdominators for '_Z8sqrt_optIdET_S0_'...
GPGPU-Sim PTX: pre-decoding instructions for '_Z8sqrt_optIdET_S0_'...
GPGPU-Sim PTX: reconvergence points for _Z8sqrt_optIdET_S0_...
GPGPU-Sim PTX: ... end of reconvergence points for _Z8sqrt_optIdET_S0_
GPGPU-Sim PTX: ... done pre-decoding instructions for '_Z8sqrt_optIdET_S0_'.
GPGPU-Sim: Warning: .minnctapersm ignored. 
GPGPU-Sim PTX: instruction assembly for function '_Z20LJ_Force_thread_atom5sim_t'...   done.
GPGPU-Sim PTX: finding reconvergence points for '_Z20LJ_Force_thread_atom5sim_t'...
GPGPU-Sim PTX: Finding dominators for '_Z20LJ_Force_thread_atom5sim_t'...
GPGPU-Sim PTX: Finding immediate dominators for '_Z20LJ_Force_thread_atom5sim_t'...
GPGPU-Sim PTX: Finding postdominators for '_Z20LJ_Force_thread_atom5sim_t'...
GPGPU-Sim PTX: Finding immediate postdominators for '_Z20LJ_Force_thread_atom5sim_t'...
GPGPU-Sim PTX: pre-decoding instructions for '_Z20LJ_Force_thread_atom5sim_t'...
GPGPU-Sim PTX: reconvergence points for _Z20LJ_Force_thread_atom5sim_t...
GPGPU-Sim PTX:  1 (potential) branch divergence @  PC=0xbb0 (_2.ptx:525) @%p1 bra BB10_2;
GPGPU-Sim PTX:    immediate post dominator      @ 
GPGPU-Sim PTX:  2 (potential) branch divergence @  PC=0xcb8 (_2.ptx:574) @%p2 bra BB10_3;
GPGPU-Sim PTX:    immediate post dominator      @ 
GPGPU-Sim PTX:  3 (potential) branch divergence @  PC=0xcf0 (_2.ptx:588) @%p3 bra BB10_5;
GPGPU-Sim PTX:    immediate post dominator      @  PC=0x1120 (_2.ptx:809) ld.param.u64 %rl97, [_Z20LJ_Force_thread_atom5sim_t_param_0+72];
GPGPU-Sim PTX:  4 (potential) branch divergence @  PC=0xd18 (_2.ptx:594) bra.uni BB10_24;
GPGPU-Sim PTX:    immediate post dominator      @  PC=0x1120 (_2.ptx:809) ld.param.u64 %rl97, [_Z20LJ_Force_thread_atom5sim_t_param_0+72];
GPGPU-Sim PTX:  5 (potential) branch divergence @  PC=0xeb8 (_2.ptx:669) @%p4 bra BB10_9;
GPGPU-Sim PTX:    immediate post dominator      @  PC=0xef0 (_2.ptx:687) setp.lt.f64 %p6, %fd104, %fd18;
GPGPU-Sim PTX:  6 (potential) branch divergence @  PC=0xec8 (_2.ptx:673) @%p5 bra BB10_8;
GPGPU-Sim PTX:    immediate post dominator      @  PC=0xef0 (_2.ptx:687) setp.lt.f64 %p6, %fd104, %fd18;
GPGPU-Sim PTX:  7 (potential) branch divergence @  PC=0xed0 (_2.ptx:674) bra.uni BB10_10;
GPGPU-Sim PTX:    immediate post dominator      @  PC=0xef0 (_2.ptx:687) setp.lt.f64 %p6, %fd104, %fd18;
GPGPU-Sim PTX:  8 (potential) branch divergence @  PC=0xee0 (_2.ptx:679) bra.uni BB10_10;
GPGPU-Sim PTX:    immediate post dominator      @  PC=0xef0 (_2.ptx:687) setp.lt.f64 %p6, %fd104, %fd18;
GPGPU-Sim PTX:  9 (potential) branch divergence @  PC=0xef8 (_2.ptx:688) @%p6 bra BB10_13;
GPGPU-Sim PTX:    immediate post dominator      @  PC=0xf30 (_2.ptx:706) setp.lt.f64 %p8, %fd105, %fd20;
GPGPU-Sim PTX: 10 (potential) branch divergence @  PC=0xf08 (_2.ptx:692) @%p7 bra BB10_12;
GPGPU-Sim PTX:    immediate post dominator      @  PC=0xf30 (_2.ptx:706) setp.lt.f64 %p8, %fd105, %fd20;
GPGPU-Sim PTX: 11 (potential) branch divergence @  PC=0xf10 (_2.ptx:693) bra.uni BB10_14;
GPGPU-Sim PTX:    immediate post dominator      @  PC=0xf30 (_2.ptx:706) setp.lt.f64 %p8, %fd105, %fd20;
GPGPU-Sim PTX: 12 (potential) branch divergence @  PC=0xf20 (_2.ptx:698) bra.uni BB10_14;
GPGPU-Sim PTX:    immediate post dominator      @  PC=0xf30 (_2.ptx:706) setp.lt.f64 %p8, %fd105, %fd20;
GPGPU-Sim PTX: 13 (potential) branch divergence @  PC=0xf38 (_2.ptx:707) @%p8 bra BB10_17;
GPGPU-Sim PTX:    immediate post dominator      @  PC=0xf70 (_2.ptx:725) shl.b64 %rl64, %rl36, 2;
GPGPU-Sim PTX: 14 (potential) branch divergence @  PC=0xf48 (_2.ptx:711) @%p9 bra BB10_16;
GPGPU-Sim PTX:    immediate post dominator      @  PC=0xf70 (_2.ptx:725) shl.b64 %rl64, %rl36, 2;
GPGPU-Sim PTX: 15 (potential) branch divergence @  PC=0xf50 (_2.ptx:712) bra.uni BB10_18;
GPGPU-Sim PTX:    immediate post dominator      @  PC=0xf70 (_2.ptx:725) shl.b64 %rl64, %rl36, 2;
GPGPU-Sim PTX: 16 (potential) branch divergence @  PC=0xf60 (_2.ptx:717) bra.uni BB10_18;
GPGPU-Sim PTX:    immediate post dominator      @  PC=0xf70 (_2.ptx:725) shl.b64 %rl64, %rl36, 2;
GPGPU-Sim PTX: 17 (potential) branch divergence @  PC=0xf98 (_2.ptx:731) @%p10 bra BB10_19;
GPGPU-Sim PTX:    immediate post dominator      @  PC=0x1100 (_2.ptx:801) add.s64 %rl98, %rl98, 1;
GPGPU-Sim PTX: 18 (potential) branch divergence @  PC=0xfa0 (_2.ptx:732) bra.uni BB10_23;
GPGPU-Sim PTX:    immediate post dominator      @  PC=0x1100 (_2.ptx:801) add.s64 %rl98, %rl98, 1;
GPGPU-Sim PTX: 19 (potential) branch divergence @  PC=0x1068 (_2.ptx:766) @%p13 bra BB10_21;
GPGPU-Sim PTX:    immediate post dominator      @  PC=0x10e0 (_2.ptx:793) add.s64 %rl99, %rl99, 8;
GPGPU-Sim PTX: 20 (potential) branch divergence @  PC=0x1070 (_2.ptx:767) bra.uni BB10_22;
GPGPU-Sim PTX:    immediate post dominator      @  PC=0x10e0 (_2.ptx:793) add.s64 %rl99, %rl99, 8;
GPGPU-Sim PTX: 21 (potential) branch divergence @  PC=0x10f8 (_2.ptx:798) @%p14 bra BB10_20;
GPGPU-Sim PTX:    immediate post dominator      @  PC=0x1100 (_2.ptx:801) add.s64 %rl98, %rl98, 1;
GPGPU-Sim PTX: 22 (potential) branch divergence @  PC=0x1118 (_2.ptx:806) @%p15 bra BB10_6;
GPGPU-Sim PTX:    immediate post dominator      @  PC=0x1120 (_2.ptx:809) ld.param.u64 %rl97, [_Z20LJ_Force_thread_atom5sim_t_param_0+72];
GPGPU-Sim PTX: ... end of reconvergence points for _Z20LJ_Force_thread_atom5sim_t
GPGPU-Sim PTX: ... done pre-decoding instructions for '_Z20LJ_Force_thread_atom5sim_t'.
GPGPU-Sim PTX: instruction assembly for function '_Z11EAM_Force_25sim_t'...   done.
GPGPU-Sim PTX: finding reconvergence points for '_Z11EAM_Force_25sim_t'...
GPGPU-Sim PTX: Finding dominators for '_Z11EAM_Force_25sim_t'...
GPGPU-Sim PTX: Finding immediate dominators for '_Z11EAM_Force_25sim_t'...
GPGPU-Sim PTX: Finding postdominators for '_Z11EAM_Force_25sim_t'...
GPGPU-Sim PTX: Finding immediate postdominators for '_Z11EAM_Force_25sim_t'...
GPGPU-Sim PTX: pre-decoding instructions for '_Z11EAM_Force_25sim_t'...
GPGPU-Sim PTX: reconvergence points for _Z11EAM_Force_25sim_t...
GPGPU-Sim PTX:  1 (potential) branch divergence @  PC=0x1230 (_2.ptx:866) @%p1 bra BB11_4;
GPGPU-Sim PTX:    immediate post dominator      @ 
GPGPU-Sim PTX:  2 (potential) branch divergence @  PC=0x1260 (_2.ptx:876) @%p2 bra BB11_4;
GPGPU-Sim PTX:    immediate post dominator      @ 
GPGPU-Sim PTX:  3 (potential) branch divergence @  PC=0x12a0 (_2.ptx:889) @%p3 bra BB11_4;
GPGPU-Sim PTX:    immediate post dominator      @ 
GPGPU-Sim PTX:  4 (potential) branch divergence @  PC=0x12d0 (_2.ptx:898) @%p4 bra BB11_5;
GPGPU-Sim PTX:    immediate post dominator      @ 
GPGPU-Sim PTX:  5 (potential) branch divergence @  PC=0x1350 (_2.ptx:928) @%p5 bra BB11_7;
GPGPU-Sim PTX:    immediate post dominator      @  PC=0x1380 (_2.ptx:940) mov.f64 %fd6, %fd30;
GPGPU-Sim PTX:  6 (potential) branch divergence @  PC=0x1370 (_2.ptx:934) bra.uni BB11_8;
GPGPU-Sim PTX:    immediate post dominator      @  PC=0x1380 (_2.ptx:940) mov.f64 %fd6, %fd30;
GPGPU-Sim PTX: ... end of reconvergence points for _Z11EAM_Force_25sim_t
GPGPU-Sim PTX: ... done pre-decoding instructions for '_Z11EAM_Force_25sim_t'.
GPGPU-Sim PTX: instruction assembly for function '_Z17copy_halos_kernel5sim_t'...   done.
GPGPU-Sim PTX: finding reconvergence points for '_Z17copy_halos_kernel5sim_t'...
GPGPU-Sim PTX: Finding dominators for '_Z17copy_halos_kernel5sim_t'...
GPGPU-Sim PTX: Finding immediate dominators for '_Z17copy_halos_kernel5sim_t'...
GPGPU-Sim PTX: Finding postdominators for '_Z17copy_halos_kernel5sim_t'...
GPGPU-Sim PTX: Finding immediate postdominators for '_Z17copy_halos_kernel5sim_t'...
GPGPU-Sim PTX: pre-decoding instructions for '_Z17copy_halos_kernel5sim_t'...
GPGPU-Sim PTX: reconvergence points for _Z17copy_halos_kernel5sim_t...
GPGPU-Sim PTX:  1 (potential) branch divergence @  PC=0x14f8 (_2.ptx:1015) @%p1 bra BB12_5;
GPGPU-Sim PTX:    immediate post dominator      @  PC=0x1750 (_2.ptx:1125) ret;
GPGPU-Sim PTX:  2 (potential) branch divergence @  PC=0x1528 (_2.ptx:1025) @%p2 bra BB12_4;
GPGPU-Sim PTX:    immediate post dominator      @  PC=0x1750 (_2.ptx:1125) ret;
GPGPU-Sim PTX:  3 (potential) branch divergence @  PC=0x1568 (_2.ptx:1038) @%p3 bra BB12_4;
GPGPU-Sim PTX:    immediate post dominator      @  PC=0x1750 (_2.ptx:1125) ret;
GPGPU-Sim PTX:  4 (potential) branch divergence @  PC=0x1598 (_2.ptx:1047) @%p4 bra BB12_5;
GPGPU-Sim PTX:    immediate post dominator      @  PC=0x1750 (_2.ptx:1125) ret;
GPGPU-Sim PTX: ... end of reconvergence points for _Z17copy_halos_kernel5sim_t
GPGPU-Sim PTX: ... done pre-decoding instructions for '_Z17copy_halos_kernel5sim_t'.
GPGPU-Sim: Warning: .minnctapersm ignored. 
GPGPU-Sim PTX: instruction assembly for function '_Z21EAM_Force_thread_atomILi1EEv5sim_t'...   done.
GPGPU-Sim PTX: finding reconvergence points for '_Z21EAM_Force_thread_atomILi1EEv5sim_t'...
GPGPU-Sim PTX: Finding dominators for '_Z21EAM_Force_thread_atomILi1EEv5sim_t'...
GPGPU-Sim PTX: Finding immediate dominators for '_Z21EAM_Force_thread_atomILi1EEv5sim_t'...
GPGPU-Sim PTX: Finding postdominators for '_Z21EAM_Force_thread_atomILi1EEv5sim_t'...
GPGPU-Sim PTX: Finding immediate postdominators for '_Z21EAM_Force_thread_atomILi1EEv5sim_t'...
GPGPU-Sim PTX: pre-decoding instructions for '_Z21EAM_Force_thread_atomILi1EEv5sim_t'...
GPGPU-Sim PTX: reconvergence points for _Z21EAM_Force_thread_atomILi1EEv5sim_t...
GPGPU-Sim PTX:  1 (potential) branch divergence @  PC=0x1788 (_2.ptx:1150) @%p1 bra BB13_2;
GPGPU-Sim PTX:    immediate post dominator      @ 
GPGPU-Sim PTX:  2 (potential) branch divergence @  PC=0x1868 (_2.ptx:1192) @%p2 bra BB13_3;
GPGPU-Sim PTX:    immediate post dominator      @ 
GPGPU-Sim PTX:  3 (potential) branch divergence @  PC=0x18a0 (_2.ptx:1206) @%p3 bra BB13_5;
GPGPU-Sim PTX:    immediate post dominator      @  PC=0x1da0 (_2.ptx:1445) ld.param.u64 %rl89, [_Z21EAM_Force_thread_atomILi1EEv5sim_t_param_0+96];
GPGPU-Sim PTX:  4 (potential) branch divergence @  PC=0x18d0 (_2.ptx:1213) bra.uni BB13_12;
GPGPU-Sim PTX:    immediate post dominator      @  PC=0x1da0 (_2.ptx:1445) ld.param.u64 %rl89, [_Z21EAM_Force_thread_atomILi1EEv5sim_t_param_0+96];
GPGPU-Sim PTX:  5 (potential) branch divergence @  PC=0x1a20 (_2.ptx:1272) @%p4 bra BB13_7;
GPGPU-Sim PTX:    immediate post dominator      @  PC=0x1d80 (_2.ptx:1437) ld.u32 %r63, [%rl27];
GPGPU-Sim PTX:  6 (potential) branch divergence @  PC=0x1a28 (_2.ptx:1273) bra.uni BB13_11;
GPGPU-Sim PTX:    immediate post dominator      @  PC=0x1d80 (_2.ptx:1437) ld.u32 %r63, [%rl27];
GPGPU-Sim PTX:  7 (potential) branch divergence @  PC=0x1af0 (_2.ptx:1309) @%p7 bra BB13_9;
GPGPU-Sim PTX:    immediate post dominator      @  PC=0x1d60 (_2.ptx:1428) ld.u32 %r61, [%rl31];
GPGPU-Sim PTX:  8 (potential) branch divergence @  PC=0x1af8 (_2.ptx:1310) bra.uni BB13_10;
GPGPU-Sim PTX:    immediate post dominator      @  PC=0x1d60 (_2.ptx:1428) ld.u32 %r61, [%rl31];
GPGPU-Sim PTX:  9 (potential) branch divergence @  PC=0x1d78 (_2.ptx:1433) @%p9 bra BB13_8;
GPGPU-Sim PTX:    immediate post dominator      @  PC=0x1d80 (_2.ptx:1437) ld.u32 %r63, [%rl27];
GPGPU-Sim PTX: 10 (potential) branch divergence @  PC=0x1d98 (_2.ptx:1442) @%p10 bra BB13_6;
GPGPU-Sim PTX:    immediate post dominator      @  PC=0x1da0 (_2.ptx:1445) ld.param.u64 %rl89, [_Z21EAM_Force_thread_atomILi1EEv5sim_t_param_0+96];
GPGPU-Sim PTX: ... end of reconvergence points for _Z21EAM_Force_thread_atomILi1EEv5sim_t
GPGPU-Sim PTX: ... done pre-decoding instructions for '_Z21EAM_Force_thread_atomILi1EEv5sim_t'.
GPGPU-Sim: Warning: .minnctapersm ignored. 
GPGPU-Sim PTX: instruction assembly for function '_Z31EAM_Force_thread_atom_warp_syncILi1EEv5sim_t'...   done.
GPGPU-Sim PTX: finding reconvergence points for '_Z31EAM_Force_thread_atom_warp_syncILi1EEv5sim_t'...
GPGPU-Sim PTX: Finding dominators for '_Z31EAM_Force_thread_atom_warp_syncILi1EEv5sim_t'...
GPGPU-Sim PTX: Finding immediate dominators for '_Z31EAM_Force_thread_atom_warp_syncILi1EEv5sim_t'...
GPGPU-Sim PTX: Finding postdominators for '_Z31EAM_Force_thread_atom_warp_syncILi1EEv5sim_t'...
GPGPU-Sim PTX: Finding immediate postdominators for '_Z31EAM_Force_thread_atom_warp_syncILi1EEv5sim_t'...
GPGPU-Sim PTX: pre-decoding instructions for '_Z31EAM_Force_thread_atom_warp_syncILi1EEv5sim_t'...
GPGPU-Sim PTX: reconvergence points for _Z31EAM_Force_thread_atom_warp_syncILi1EEv5sim_t...
GPGPU-Sim PTX:  1 (potential) branch divergence @  PC=0x1e70 (_2.ptx:1496) @%p1 bra BB14_2;
GPGPU-Sim PTX:    immediate post dominator      @ 
GPGPU-Sim PTX:  2 (potential) branch divergence @  PC=0x1f50 (_2.ptx:1538) @%p2 bra BB14_3;
GPGPU-Sim PTX:    immediate post dominator      @ 
GPGPU-Sim PTX:  3 (potential) branch divergence @  PC=0x1f88 (_2.ptx:1552) @%p3 bra BB14_5;
GPGPU-Sim PTX:    immediate post dominator      @  PC=0x2488 (_2.ptx:1791) ld.param.u64 %rl89, [_Z31EAM_Force_thread_atom_warp_syncILi1EEv5sim_t_param_0+96];
GPGPU-Sim PTX:  4 (potential) branch divergence @  PC=0x1fb8 (_2.ptx:1559) bra.uni BB14_12;
GPGPU-Sim PTX:    immediate post dominator      @  PC=0x2488 (_2.ptx:1791) ld.param.u64 %rl89, [_Z31EAM_Force_thread_atom_warp_syncILi1EEv5sim_t_param_0+96];
GPGPU-Sim PTX:  5 (potential) branch divergence @  PC=0x2108 (_2.ptx:1618) @%p4 bra BB14_7;
GPGPU-Sim PTX:    immediate post dominator      @  PC=0x2468 (_2.ptx:1783) ld.u32 %r63, [%rl27];
GPGPU-Sim PTX:  6 (potential) branch divergence @  PC=0x2110 (_2.ptx:1619) bra.uni BB14_11;
GPGPU-Sim PTX:    immediate post dominator      @  PC=0x2468 (_2.ptx:1783) ld.u32 %r63, [%rl27];
GPGPU-Sim PTX:  7 (potential) branch divergence @  PC=0x21d8 (_2.ptx:1655) @%p7 bra BB14_9;
GPGPU-Sim PTX:    immediate post dominator      @  PC=0x2448 (_2.ptx:1774) ld.u32 %r61, [%rl31];
GPGPU-Sim PTX:  8 (potential) branch divergence @  PC=0x21e0 (_2.ptx:1656) bra.uni BB14_10;
GPGPU-Sim PTX:    immediate post dominator      @  PC=0x2448 (_2.ptx:1774) ld.u32 %r61, [%rl31];
GPGPU-Sim PTX:  9 (potential) branch divergence @  PC=0x2460 (_2.ptx:1779) @%p9 bra BB14_8;
GPGPU-Sim PTX:    immediate post dominator      @  PC=0x2468 (_2.ptx:1783) ld.u32 %r63, [%rl27];
GPGPU-Sim PTX: 10 (potential) branch divergence @  PC=0x2480 (_2.ptx:1788) @%p10 bra BB14_6;
GPGPU-Sim PTX:    immediate post dominator      @  PC=0x2488 (_2.ptx:1791) ld.param.u64 %rl89, [_Z31EAM_Force_thread_atom_warp_syncILi1EEv5sim_t_param_0+96];
GPGPU-Sim PTX: ... end of reconvergence points for _Z31EAM_Force_thread_atom_warp_syncILi1EEv5sim_t
GPGPU-Sim PTX: ... done pre-decoding instructions for '_Z31EAM_Force_thread_atom_warp_syncILi1EEv5sim_t'.
GPGPU-Sim: Warning: .minnctapersm ignored. 
GPGPU-Sim PTX: instruction assembly for function '_Z17EAM_Force_cta_boxILi1EEv5sim_t'...   done.
GPGPU-Sim PTX: finding reconvergence points for '_Z17EAM_Force_cta_boxILi1EEv5sim_t'...
GPGPU-Sim PTX: Finding dominators for '_Z17EAM_Force_cta_boxILi1EEv5sim_t'...
GPGPU-Sim PTX: Finding immediate dominators for '_Z17EAM_Force_cta_boxILi1EEv5sim_t'...
GPGPU-Sim PTX: Finding postdominators for '_Z17EAM_Force_cta_boxILi1EEv5sim_t'...
GPGPU-Sim PTX: Finding immediate postdominators for '_Z17EAM_Force_cta_boxILi1EEv5sim_t'...
GPGPU-Sim PTX: pre-decoding instructions for '_Z17EAM_Force_cta_boxILi1EEv5sim_t'...
GPGPU-Sim PTX: reconvergence points for _Z17EAM_Force_cta_boxILi1EEv5sim_t...
GPGPU-Sim PTX:  1 (potential) branch divergence @  PC=0x2580 (_2.ptx:1851) @%p3 bra BB15_2;
GPGPU-Sim PTX:    immediate post dominator      @  PC=0x2658 (_2.ptx:1893) bar.sync 0;
GPGPU-Sim PTX:  2 (potential) branch divergence @  PC=0x2680 (_2.ptx:1900) @!%p1 bra BB15_4;
GPGPU-Sim PTX:    immediate post dominator      @  PC=0x27a8 (_2.ptx:1956) setp.lt.s32 %p4, %r7, 1;
GPGPU-Sim PTX:  3 (potential) branch divergence @  PC=0x27b0 (_2.ptx:1957) @%p4 bra BB15_21;
GPGPU-Sim PTX:    immediate post dominator      @  PC=0x3270 (_2.ptx:2453) bar.sync 0;
GPGPU-Sim PTX:  4 (potential) branch divergence @  PC=0x2808 (_2.ptx:1976) @%p6 bra BB15_8;
GPGPU-Sim PTX:    immediate post dominator      @  PC=0x2990 (_2.ptx:2044) bar.sync 0;
GPGPU-Sim PTX:  5 (potential) branch divergence @  PC=0x29a0 (_2.ptx:2047) @%p7 bra BB15_20;
GPGPU-Sim PTX:    immediate post dominator      @  PC=0x3250 (_2.ptx:2444) bar.sync 0;
GPGPU-Sim PTX:  6 (potential) branch divergence @  PC=0x29d0 (_2.ptx:2059) @%p8 bra BB15_19;
GPGPU-Sim PTX:    immediate post dominator      @  PC=0x3238 (_2.ptx:2437) add.s32 %r201, %r201, 4;
GPGPU-Sim PTX:  7 (potential) branch divergence @  PC=0x2a18 (_2.ptx:2072) @%p9 bra BB15_17;
GPGPU-Sim PTX:    immediate post dominator      @  PC=0x2d80 (_2.ptx:2236) cvt.u64.u32 %rl97, %r25;
GPGPU-Sim PTX:  8 (potential) branch divergence @  PC=0x2a30 (_2.ptx:2078) @%p11 bra BB15_17;
GPGPU-Sim PTX:    immediate post dominator      @  PC=0x2d80 (_2.ptx:2236) cvt.u64.u32 %rl97, %r25;
GPGPU-Sim PTX:  9 (potential) branch divergence @  PC=0x2af8 (_2.ptx:2110) @%p14 bra BB15_15;
GPGPU-Sim PTX:    immediate post dominator      @  PC=0x2d68 (_2.ptx:2229) add.s32 %r202, %r202, 32;
GPGPU-Sim PTX: 10 (potential) branch divergence @  PC=0x2b00 (_2.ptx:2111) bra.uni BB15_16;
GPGPU-Sim PTX:    immediate post dominator      @  PC=0x2d68 (_2.ptx:2229) add.s32 %r202, %r202, 32;
GPGPU-Sim PTX: 11 (potential) branch divergence @  PC=0x2d78 (_2.ptx:2232) bra.uni BB15_12;
GPGPU-Sim PTX:    immediate post dominator      @  PC=0x2a10 (_2.ptx:2071) setp.gt.s32 %p9, %r203, 3;
GPGPU-Sim PTX: 12 (potential) branch divergence @  PC=0x3128 (_2.ptx:2390) @%p16 bra BB15_19;
GPGPU-Sim PTX:    immediate post dominator      @  PC=0x3238 (_2.ptx:2437) add.s32 %r201, %r201, 4;
GPGPU-Sim PTX: 13 (potential) branch divergence @  PC=0x3248 (_2.ptx:2440) @%p17 bra BB15_10;
GPGPU-Sim PTX:    immediate post dominator      @  PC=0x3250 (_2.ptx:2444) bar.sync 0;
GPGPU-Sim PTX: 14 (potential) branch divergence @  PC=0x3268 (_2.ptx:2449) @%p18 bra BB15_6;
GPGPU-Sim PTX:    immediate post dominator      @  PC=0x3270 (_2.ptx:2453) bar.sync 0;
GPGPU-Sim PTX: 15 (potential) branch divergence @  PC=0x3278 (_2.ptx:2455) @%p1 bra BB15_23;
GPGPU-Sim PTX:    immediate post dominator      @ 
GPGPU-Sim PTX: ... end of reconvergence points for _Z17EAM_Force_cta_boxILi1EEv5sim_t
GPGPU-Sim PTX: ... done pre-decoding instructions for '_Z17EAM_Force_cta_boxILi1EEv5sim_t'.
GPGPU-Sim: Warning: .minnctapersm ignored. 
GPGPU-Sim PTX: Warning %p1 was declared previous at _2.ptx:2531 skipping new declaration
GPGPU-Sim PTX: Warning %p1 was declared previous at _2.ptx:2531 skipping new declaration
GPGPU-Sim PTX: Warning %p1 was declared previous at _2.ptx:2531 skipping new declaration
GPGPU-Sim PTX: Warning %p1 was declared previous at _2.ptx:2531 skipping new declaration
GPGPU-Sim PTX: instruction assembly for function '_Z21EAM_Force_cta_box_aggILi1EEv5sim_t'...   done.
GPGPU-Sim PTX: finding reconvergence points for '_Z21EAM_Force_cta_box_aggILi1EEv5sim_t'...
GPGPU-Sim PTX: Finding dominators for '_Z21EAM_Force_cta_box_aggILi1EEv5sim_t'...
GPGPU-Sim PTX: Finding immediate dominators for '_Z21EAM_Force_cta_box_aggILi1EEv5sim_t'...
GPGPU-Sim PTX: Finding postdominators for '_Z21EAM_Force_cta_box_aggILi1EEv5sim_t'...
GPGPU-Sim PTX: Finding immediate postdominators for '_Z21EAM_Force_cta_box_aggILi1EEv5sim_t'...
GPGPU-Sim PTX: pre-decoding instructions for '_Z21EAM_Force_cta_box_aggILi1EEv5sim_t'...
GPGPU-Sim PTX: reconvergence points for _Z21EAM_Force_cta_box_aggILi1EEv5sim_t...
GPGPU-Sim PTX:  1 (potential) branch divergence @  PC=0x34d0 (_2.ptx:2572) @%p6 bra BB16_2;
GPGPU-Sim PTX:    immediate post dominator      @  PC=0x35a0 (_2.ptx:2613) bar.sync 0;
GPGPU-Sim PTX:  2 (potential) branch divergence @  PC=0x35c0 (_2.ptx:2619) @!%p1 bra BB16_4;
GPGPU-Sim PTX:    immediate post dominator      @  PC=0x36e8 (_2.ptx:2675) setp.lt.s32 %p7, %r7, 1;
GPGPU-Sim PTX:  3 (potential) branch divergence @  PC=0x36f0 (_2.ptx:2676) @%p7 bra BB16_27;
GPGPU-Sim PTX:    immediate post dominator      @  PC=0x4708 (_2.ptx:3448) bar.sync 0;
GPGPU-Sim PTX:  4 (potential) branch divergence @  PC=0x3748 (_2.ptx:2695) @%p9 bra BB16_8;
GPGPU-Sim PTX:    immediate post dominator      @  PC=0x38d0 (_2.ptx:2763) bar.sync 0;
GPGPU-Sim PTX:  5 (potential) branch divergence @  PC=0x38e0 (_2.ptx:2766) @%p10 bra BB16_26;
GPGPU-Sim PTX:    immediate post dominator      @  PC=0x46e8 (_2.ptx:3439) bar.sync 0;
GPGPU-Sim PTX:  6 (potential) branch divergence @  PC=0x3970 (_2.ptx:2794) @%p16 bra BB16_25;
GPGPU-Sim PTX:    immediate post dominator      @  PC=0x46d0 (_2.ptx:3432) add.s32 %r291, %r291, 4;
GPGPU-Sim PTX:  7 (potential) branch divergence @  PC=0x3a90 (_2.ptx:2848) @!%p20 bra BB16_13;
GPGPU-Sim PTX:    immediate post dominator      @  PC=0x3ac8 (_2.ptx:2862) popc.b32 %r18, %r97;
GPGPU-Sim PTX:  8 (potential) branch divergence @  PC=0x3ba0 (_2.ptx:2906) @!%p24 bra BB16_15;
GPGPU-Sim PTX:    immediate post dominator      @  PC=0x3be8 (_2.ptx:2922) popc.b32 %r139, %r114;
GPGPU-Sim PTX:  9 (potential) branch divergence @  PC=0x3cc8 (_2.ptx:2968) @!%p28 bra BB16_17;
GPGPU-Sim PTX:    immediate post dominator      @  PC=0x3d10 (_2.ptx:2984) popc.b32 %r158, %r132;
GPGPU-Sim PTX: 10 (potential) branch divergence @  PC=0x3df0 (_2.ptx:3030) @!%p32 bra BB16_19;
GPGPU-Sim PTX:    immediate post dominator      @  PC=0x3e38 (_2.ptx:3046) popc.b32 %r170, %r151;
GPGPU-Sim PTX: 11 (potential) branch divergence @  PC=0x3e50 (_2.ptx:3052) @%p33 bra BB16_21;
GPGPU-Sim PTX:    immediate post dominator      @  PC=0x4200 (_2.ptx:3228) cvt.u64.u32 %rl147, %r36;
GPGPU-Sim PTX: 12 (potential) branch divergence @  PC=0x3e80 (_2.ptx:3059) bra.uni BB16_23;
GPGPU-Sim PTX:    immediate post dominator      @  PC=0x4200 (_2.ptx:3228) cvt.u64.u32 %rl147, %r36;
GPGPU-Sim PTX: 13 (potential) branch divergence @  PC=0x41f8 (_2.ptx:3224) @%p37 bra BB16_22;
GPGPU-Sim PTX:    immediate post dominator      @  PC=0x4200 (_2.ptx:3228) cvt.u64.u32 %rl147, %r36;
GPGPU-Sim PTX: 14 (potential) branch divergence @  PC=0x45a0 (_2.ptx:3380) @%p38 bra BB16_25;
GPGPU-Sim PTX:    immediate post dominator      @  PC=0x46d0 (_2.ptx:3432) add.s32 %r291, %r291, 4;
GPGPU-Sim PTX: 15 (potential) branch divergence @  PC=0x46e0 (_2.ptx:3435) @%p39 bra BB16_10;
GPGPU-Sim PTX:    immediate post dominator      @  PC=0x46e8 (_2.ptx:3439) bar.sync 0;
GPGPU-Sim PTX: 16 (potential) branch divergence @  PC=0x4700 (_2.ptx:3444) @%p40 bra BB16_6;
GPGPU-Sim PTX:    immediate post dominator      @  PC=0x4708 (_2.ptx:3448) bar.sync 0;
GPGPU-Sim PTX: 17 (potential) branch divergence @  PC=0x4710 (_2.ptx:3450) @%p1 bra BB16_29;
GPGPU-Sim PTX:    immediate post dominator      @ 
GPGPU-Sim PTX: ... end of reconvergence points for _Z21EAM_Force_cta_box_aggILi1EEv5sim_t
GPGPU-Sim PTX: ... done pre-decoding instructions for '_Z21EAM_Force_cta_box_aggILi1EEv5sim_t'.
GPGPU-Sim: Warning: .minnctapersm ignored. 
GPGPU-Sim PTX: instruction assembly for function '_Z21EAM_Force_thread_atomILi3EEv5sim_t'...   done.
GPGPU-Sim PTX: finding reconvergence points for '_Z21EAM_Force_thread_atomILi3EEv5sim_t'...
GPGPU-Sim PTX: Finding dominators for '_Z21EAM_Force_thread_atomILi3EEv5sim_t'...
GPGPU-Sim PTX: Finding immediate dominators for '_Z21EAM_Force_thread_atomILi3EEv5sim_t'...
GPGPU-Sim PTX: Finding postdominators for '_Z21EAM_Force_thread_atomILi3EEv5sim_t'...
GPGPU-Sim PTX: Finding immediate postdominators for '_Z21EAM_Force_thread_atomILi3EEv5sim_t'...
GPGPU-Sim PTX: pre-decoding instructions for '_Z21EAM_Force_thread_atomILi3EEv5sim_t'...
GPGPU-Sim PTX: reconvergence points for _Z21EAM_Force_thread_atomILi3EEv5sim_t...
GPGPU-Sim PTX:  1 (potential) branch divergence @  PC=0x48d8 (_2.ptx:3542) @%p1 bra BB17_2;
GPGPU-Sim PTX:    immediate post dominator      @ 
GPGPU-Sim PTX:  2 (potential) branch divergence @  PC=0x49c0 (_2.ptx:3585) @%p2 bra BB17_3;
GPGPU-Sim PTX:    immediate post dominator      @ 
GPGPU-Sim PTX:  3 (potential) branch divergence @  PC=0x4a48 (_2.ptx:3613) @%p3 bra BB17_4;
GPGPU-Sim PTX:    immediate post dominator      @  PC=0x4e48 (_2.ptx:3812) st.f64 [%rl38], %fd97;
GPGPU-Sim PTX:  4 (potential) branch divergence @  PC=0x4a50 (_2.ptx:3614) bra.uni BB17_11;
GPGPU-Sim PTX:    immediate post dominator      @  PC=0x4e48 (_2.ptx:3812) st.f64 [%rl38], %fd97;
GPGPU-Sim PTX:  5 (potential) branch divergence @  PC=0x4b80 (_2.ptx:3670) @%p4 bra BB17_6;
GPGPU-Sim PTX:    immediate post dominator      @  PC=0x4e28 (_2.ptx:3803) ld.u32 %r60, [%rl41];
GPGPU-Sim PTX:  6 (potential) branch divergence @  PC=0x4b88 (_2.ptx:3671) bra.uni BB17_10;
GPGPU-Sim PTX:    immediate post dominator      @  PC=0x4e28 (_2.ptx:3803) ld.u32 %r60, [%rl41];
GPGPU-Sim PTX:  7 (potential) branch divergence @  PC=0x4c58 (_2.ptx:3708) @%p7 bra BB17_8;
GPGPU-Sim PTX:    immediate post dominator      @  PC=0x4e08 (_2.ptx:3794) ld.u32 %r58, [%rl46];
GPGPU-Sim PTX:  8 (potential) branch divergence @  PC=0x4c60 (_2.ptx:3709) bra.uni BB17_9;
GPGPU-Sim PTX:    immediate post dominator      @  PC=0x4e08 (_2.ptx:3794) ld.u32 %r58, [%rl46];
GPGPU-Sim PTX:  9 (potential) branch divergence @  PC=0x4e20 (_2.ptx:3799) @%p9 bra BB17_7;
GPGPU-Sim PTX:    immediate post dominator      @  PC=0x4e28 (_2.ptx:3803) ld.u32 %r60, [%rl41];
GPGPU-Sim PTX: 10 (potential) branch divergence @  PC=0x4e40 (_2.ptx:3808) @%p10 bra BB17_5;
GPGPU-Sim PTX:    immediate post dominator      @  PC=0x4e48 (_2.ptx:3812) st.f64 [%rl38], %fd97;
GPGPU-Sim PTX: ... end of reconvergence points for _Z21EAM_Force_thread_atomILi3EEv5sim_t
GPGPU-Sim PTX: ... done pre-decoding instructions for '_Z21EAM_Force_thread_atomILi3EEv5sim_t'.
GPGPU-Sim: Warning: .minnctapersm ignored. 
GPGPU-Sim PTX: instruction assembly for function '_Z31EAM_Force_thread_atom_warp_syncILi3EEv5sim_t'...   done.
GPGPU-Sim PTX: finding reconvergence points for '_Z31EAM_Force_thread_atom_warp_syncILi3EEv5sim_t'...
GPGPU-Sim PTX: Finding dominators for '_Z31EAM_Force_thread_atom_warp_syncILi3EEv5sim_t'...
GPGPU-Sim PTX: Finding immediate dominators for '_Z31EAM_Force_thread_atom_warp_syncILi3EEv5sim_t'...
GPGPU-Sim PTX: Finding postdominators for '_Z31EAM_Force_thread_atom_warp_syncILi3EEv5sim_t'...
GPGPU-Sim PTX: Finding immediate postdominators for '_Z31EAM_Force_thread_atom_warp_syncILi3EEv5sim_t'...
GPGPU-Sim PTX: pre-decoding instructions for '_Z31EAM_Force_thread_atom_warp_syncILi3EEv5sim_t'...
GPGPU-Sim PTX: reconvergence points for _Z31EAM_Force_thread_atom_warp_syncILi3EEv5sim_t...
GPGPU-Sim PTX:  1 (potential) branch divergence @  PC=0x4ea8 (_2.ptx:3845) @%p1 bra BB18_2;
GPGPU-Sim PTX:    immediate post dominator      @ 
GPGPU-Sim PTX:  2 (potential) branch divergence @  PC=0x4f90 (_2.ptx:3888) @%p2 bra BB18_3;
GPGPU-Sim PTX:    immediate post dominator      @ 
GPGPU-Sim PTX:  3 (potential) branch divergence @  PC=0x5018 (_2.ptx:3916) @%p3 bra BB18_4;
GPGPU-Sim PTX:    immediate post dominator      @  PC=0x5418 (_2.ptx:4115) st.f64 [%rl38], %fd97;
GPGPU-Sim PTX:  4 (potential) branch divergence @  PC=0x5020 (_2.ptx:3917) bra.uni BB18_11;
GPGPU-Sim PTX:    immediate post dominator      @  PC=0x5418 (_2.ptx:4115) st.f64 [%rl38], %fd97;
GPGPU-Sim PTX:  5 (potential) branch divergence @  PC=0x5150 (_2.ptx:3973) @%p4 bra BB18_6;
GPGPU-Sim PTX:    immediate post dominator      @  PC=0x53f8 (_2.ptx:4106) ld.u32 %r60, [%rl41];
GPGPU-Sim PTX:  6 (potential) branch divergence @  PC=0x5158 (_2.ptx:3974) bra.uni BB18_10;
GPGPU-Sim PTX:    immediate post dominator      @  PC=0x53f8 (_2.ptx:4106) ld.u32 %r60, [%rl41];
GPGPU-Sim PTX:  7 (potential) branch divergence @  PC=0x5228 (_2.ptx:4011) @%p7 bra BB18_8;
GPGPU-Sim PTX:    immediate post dominator      @  PC=0x53d8 (_2.ptx:4097) ld.u32 %r58, [%rl46];
GPGPU-Sim PTX:  8 (potential) branch divergence @  PC=0x5230 (_2.ptx:4012) bra.uni BB18_9;
GPGPU-Sim PTX:    immediate post dominator      @  PC=0x53d8 (_2.ptx:4097) ld.u32 %r58, [%rl46];
GPGPU-Sim PTX:  9 (potential) branch divergence @  PC=0x53f0 (_2.ptx:4102) @%p9 bra BB18_7;
GPGPU-Sim PTX:    immediate post dominator      @  PC=0x53f8 (_2.ptx:4106) ld.u32 %r60, [%rl41];
GPGPU-Sim PTX: 10 (potential) branch divergence @  PC=0x5410 (_2.ptx:4111) @%p10 bra BB18_5;
GPGPU-Sim PTX:    immediate post dominator      @  PC=0x5418 (_2.ptx:4115) st.f64 [%rl38], %fd97;
GPGPU-Sim PTX: ... end of reconvergence points for _Z31EAM_Force_thread_atom_warp_syncILi3EEv5sim_t
GPGPU-Sim PTX: ... done pre-decoding instructions for '_Z31EAM_Force_thread_atom_warp_syncILi3EEv5sim_t'.
GPGPU-Sim: Warning: .minnctapersm ignored. 
GPGPU-Sim PTX: instruction assembly for function '_Z17EAM_Force_cta_boxILi3EEv5sim_t'...   done.
GPGPU-Sim PTX: finding reconvergence points for '_Z17EAM_Force_cta_boxILi3EEv5sim_t'...
GPGPU-Sim PTX: Finding dominators for '_Z17EAM_Force_cta_boxILi3EEv5sim_t'...
GPGPU-Sim PTX: Finding immediate dominators for '_Z17EAM_Force_cta_boxILi3EEv5sim_t'...
GPGPU-Sim PTX: Finding postdominators for '_Z17EAM_Force_cta_boxILi3EEv5sim_t'...
GPGPU-Sim PTX: Finding immediate postdominators for '_Z17EAM_Force_cta_boxILi3EEv5sim_t'...
GPGPU-Sim PTX: pre-decoding instructions for '_Z17EAM_Force_cta_boxILi3EEv5sim_t'...
GPGPU-Sim PTX: reconvergence points for _Z17EAM_Force_cta_boxILi3EEv5sim_t...
GPGPU-Sim PTX:  1 (potential) branch divergence @  PC=0x5490 (_2.ptx:4155) @%p3 bra BB19_2;
GPGPU-Sim PTX:    immediate post dominator      @  PC=0x5590 (_2.ptx:4203) bar.sync 0;
GPGPU-Sim PTX:  2 (potential) branch divergence @  PC=0x55b8 (_2.ptx:4210) @!%p1 bra BB19_4;
GPGPU-Sim PTX:    immediate post dominator      @  PC=0x56e0 (_2.ptx:4266) setp.lt.s32 %p4, %r7, 1;
GPGPU-Sim PTX:  3 (potential) branch divergence @  PC=0x56e8 (_2.ptx:4267) @%p4 bra BB19_21;
GPGPU-Sim PTX:    immediate post dominator      @  PC=0x5fd8 (_2.ptx:4687) bar.sync 0;
GPGPU-Sim PTX:  4 (potential) branch divergence @  PC=0x5740 (_2.ptx:4286) @%p6 bra BB19_8;
GPGPU-Sim PTX:    immediate post dominator      @  PC=0x58f0 (_2.ptx:4360) bar.sync 0;
GPGPU-Sim PTX:  5 (potential) branch divergence @  PC=0x5900 (_2.ptx:4363) @%p7 bra BB19_20;
GPGPU-Sim PTX:    immediate post dominator      @  PC=0x5fb8 (_2.ptx:4678) bar.sync 0;
GPGPU-Sim PTX:  6 (potential) branch divergence @  PC=0x5930 (_2.ptx:4375) @%p8 bra BB19_19;
GPGPU-Sim PTX:    immediate post dominator      @  PC=0x5fa0 (_2.ptx:4671) add.s32 %r184, %r184, 4;
GPGPU-Sim PTX:  7 (potential) branch divergence @  PC=0x5968 (_2.ptx:4386) @%p9 bra BB19_17;
GPGPU-Sim PTX:    immediate post dominator      @  PC=0x5c30 (_2.ptx:4523) cvt.u64.u32 %rl100, %r25;
GPGPU-Sim PTX:  8 (potential) branch divergence @  PC=0x5980 (_2.ptx:4392) @%p11 bra BB19_17;
GPGPU-Sim PTX:    immediate post dominator      @  PC=0x5c30 (_2.ptx:4523) cvt.u64.u32 %rl100, %r25;
GPGPU-Sim PTX:  9 (potential) branch divergence @  PC=0x5a48 (_2.ptx:4424) @%p14 bra BB19_15;
GPGPU-Sim PTX:    immediate post dominator      @  PC=0x5c18 (_2.ptx:4516) add.s32 %r185, %r185, 32;
GPGPU-Sim PTX: 10 (potential) branch divergence @  PC=0x5a50 (_2.ptx:4425) bra.uni BB19_16;
GPGPU-Sim PTX:    immediate post dominator      @  PC=0x5c18 (_2.ptx:4516) add.s32 %r185, %r185, 32;
GPGPU-Sim PTX: 11 (potential) branch divergence @  PC=0x5c28 (_2.ptx:4519) bra.uni BB19_12;
GPGPU-Sim PTX:    immediate post dominator      @  PC=0x5960 (_2.ptx:4385) setp.gt.s32 %p9, %r186, 3;
GPGPU-Sim PTX: 12 (potential) branch divergence @  PC=0x5ee8 (_2.ptx:4637) @%p16 bra BB19_19;
GPGPU-Sim PTX:    immediate post dominator      @  PC=0x5fa0 (_2.ptx:4671) add.s32 %r184, %r184, 4;
GPGPU-Sim PTX: 13 (potential) branch divergence @  PC=0x5fb0 (_2.ptx:4674) @%p17 bra BB19_10;
GPGPU-Sim PTX:    immediate post dominator      @  PC=0x5fb8 (_2.ptx:4678) bar.sync 0;
GPGPU-Sim PTX: 14 (potential) branch divergence @  PC=0x5fd0 (_2.ptx:4683) @%p18 bra BB19_6;
GPGPU-Sim PTX:    immediate post dominator      @  PC=0x5fd8 (_2.ptx:4687) bar.sync 0;
GPGPU-Sim PTX: 15 (potential) branch divergence @  PC=0x5fe0 (_2.ptx:4689) @%p1 bra BB19_23;
GPGPU-Sim PTX:    immediate post dominator      @ 
GPGPU-Sim PTX: ... end of reconvergence points for _Z17EAM_Force_cta_boxILi3EEv5sim_t
GPGPU-Sim PTX: ... done pre-decoding instructions for '_Z17EAM_Force_cta_boxILi3EEv5sim_t'.
GPGPU-Sim: Warning: .minnctapersm ignored. 
GPGPU-Sim PTX: Warning %p1 was declared previous at _2.ptx:4746 skipping new declaration
GPGPU-Sim PTX: Warning %p1 was declared previous at _2.ptx:4746 skipping new declaration
GPGPU-Sim PTX: Warning %p1 was declared previous at _2.ptx:4746 skipping new declaration
GPGPU-Sim PTX: Warning %p1 was declared previous at _2.ptx:4746 skipping new declaration
GPGPU-Sim PTX: instruction assembly for function '_Z21EAM_Force_cta_box_aggILi3EEv5sim_t'...   done.
GPGPU-Sim PTX: finding reconvergence points for '_Z21EAM_Force_cta_box_aggILi3EEv5sim_t'...
GPGPU-Sim PTX: Finding dominators for '_Z21EAM_Force_cta_box_aggILi3EEv5sim_t'...
GPGPU-Sim PTX: Finding immediate dominators for '_Z21EAM_Force_cta_box_aggILi3EEv5sim_t'...
GPGPU-Sim PTX: Finding postdominators for '_Z21EAM_Force_cta_box_aggILi3EEv5sim_t'...
GPGPU-Sim PTX: Finding immediate postdominators for '_Z21EAM_Force_cta_box_aggILi3EEv5sim_t'...
GPGPU-Sim PTX: pre-decoding instructions for '_Z21EAM_Force_cta_box_aggILi3EEv5sim_t'...
GPGPU-Sim PTX: reconvergence points for _Z21EAM_Force_cta_box_aggILi3EEv5sim_t...
GPGPU-Sim PTX:  1 (potential) branch divergence @  PC=0x6188 (_2.ptx:4781) @%p6 bra BB20_2;
GPGPU-Sim PTX:    immediate post dominator      @  PC=0x6280 (_2.ptx:4828) bar.sync 0;
GPGPU-Sim PTX:  2 (potential) branch divergence @  PC=0x62a0 (_2.ptx:4834) @!%p1 bra BB20_4;
GPGPU-Sim PTX:    immediate post dominator      @  PC=0x63c8 (_2.ptx:4890) setp.lt.s32 %p7, %r7, 1;
GPGPU-Sim PTX:  3 (potential) branch divergence @  PC=0x63d0 (_2.ptx:4891) @%p7 bra BB20_27;
GPGPU-Sim PTX:    immediate post dominator      @  PC=0x7278 (_2.ptx:5604) bar.sync 0;
GPGPU-Sim PTX:  4 (potential) branch divergence @  PC=0x6428 (_2.ptx:4910) @%p9 bra BB20_8;
GPGPU-Sim PTX:    immediate post dominator      @  PC=0x65d8 (_2.ptx:4984) bar.sync 0;
GPGPU-Sim PTX:  5 (potential) branch divergence @  PC=0x65e8 (_2.ptx:4987) @%p10 bra BB20_26;
GPGPU-Sim PTX:    immediate post dominator      @  PC=0x7258 (_2.ptx:5595) bar.sync 0;
GPGPU-Sim PTX:  6 (potential) branch divergence @  PC=0x6678 (_2.ptx:5015) @%p16 bra BB20_25;
GPGPU-Sim PTX:    immediate post dominator      @  PC=0x7240 (_2.ptx:5588) add.s32 %r280, %r280, 4;
GPGPU-Sim PTX:  7 (potential) branch divergence @  PC=0x6798 (_2.ptx:5069) @!%p20 bra BB20_13;
GPGPU-Sim PTX:    immediate post dominator      @  PC=0x67e8 (_2.ptx:5087) popc.b32 %r18, %r101;
GPGPU-Sim PTX:  8 (potential) branch divergence @  PC=0x68c0 (_2.ptx:5131) @!%p24 bra BB20_15;
GPGPU-Sim PTX:    immediate post dominator      @  PC=0x6920 (_2.ptx:5151) popc.b32 %r147, %r120;
GPGPU-Sim PTX:  9 (potential) branch divergence @  PC=0x6a00 (_2.ptx:5197) @!%p28 bra BB20_17;
GPGPU-Sim PTX:    immediate post dominator      @  PC=0x6a60 (_2.ptx:5217) popc.b32 %r168, %r140;
GPGPU-Sim PTX: 10 (potential) branch divergence @  PC=0x6b40 (_2.ptx:5263) @!%p32 bra BB20_19;
GPGPU-Sim PTX:    immediate post dominator      @  PC=0x6ba0 (_2.ptx:5283) popc.b32 %r182, %r161;
GPGPU-Sim PTX: 11 (potential) branch divergence @  PC=0x6bb8 (_2.ptx:5289) @%p33 bra BB20_21;
GPGPU-Sim PTX:    immediate post dominator      @  PC=0x6eb0 (_2.ptx:5436) cvt.u64.u32 %rl149, %r36;
GPGPU-Sim PTX: 12 (potential) branch divergence @  PC=0x6bd8 (_2.ptx:5294) bra.uni BB20_23;
GPGPU-Sim PTX:    immediate post dominator      @  PC=0x6eb0 (_2.ptx:5436) cvt.u64.u32 %rl149, %r36;
GPGPU-Sim PTX: 13 (potential) branch divergence @  PC=0x6ea8 (_2.ptx:5432) @%p37 bra BB20_22;
GPGPU-Sim PTX:    immediate post dominator      @  PC=0x6eb0 (_2.ptx:5436) cvt.u64.u32 %rl149, %r36;
GPGPU-Sim PTX: 14 (potential) branch divergence @  PC=0x7160 (_2.ptx:5548) @%p38 bra BB20_25;
GPGPU-Sim PTX:    immediate post dominator      @  PC=0x7240 (_2.ptx:5588) add.s32 %r280, %r280, 4;
GPGPU-Sim PTX: 15 (potential) branch divergence @  PC=0x7250 (_2.ptx:5591) @%p39 bra BB20_10;
GPGPU-Sim PTX:    immediate post dominator      @  PC=0x7258 (_2.ptx:5595) bar.sync 0;
GPGPU-Sim PTX: 16 (potential) branch divergence @  PC=0x7270 (_2.ptx:5600) @%p40 bra BB20_6;
GPGPU-Sim PTX:    immediate post dominator      @  PC=0x7278 (_2.ptx:5604) bar.sync 0;
GPGPU-Sim PTX: 17 (potential) branch divergence @  PC=0x7280 (_2.ptx:5606) @%p1 bra BB20_29;
GPGPU-Sim PTX:    immediate post dominator      @ 
GPGPU-Sim PTX: ... end of reconvergence points for _Z21EAM_Force_cta_box_aggILi3EEv5sim_t
GPGPU-Sim PTX: ... done pre-decoding instructions for '_Z21EAM_Force_cta_box_aggILi3EEv5sim_t'.
GPGPU-Sim PTX: finished parsing EMBEDDED .ptx file _2.ptx
Adding _cuobjdump_1.ptx with cubin handle 2
GPGPU-Sim PTX: extracting embedded .ptx to temporary file "_ptx_6UlUZM"
Running: cat _ptx_6UlUZM | sed 's/.version 1.5/.version 1.4/' | sed 's/, texmode_independent//' | sed 's/\(\.extern \.const\[1\] .b8 \w\+\)\[\]/\1\[1\]/' | sed 's/const\[.\]/const\[0\]/g' > _ptx2_lEuICq
GPGPU-Sim PTX: generating ptxinfo using "$CUDA_INSTALL_PATH/bin/ptxas --gpu-name=sm_20 -v _ptx2_lEuICq --output-file  /dev/null 2> _ptx_6UlUZMinfo"
GPGPU-Sim PTX: Kernel '_Z21EAM_Force_thread_atomILi1EEv5sim_t' : regs=32, lmem=0, smem=0, cmem=620
GPGPU-Sim PTX: Kernel '_Z21EAM_Force_thread_atomILi3EEv5sim_t' : regs=32, lmem=0, smem=0, cmem=620
GPGPU-Sim PTX: Kernel '_Z17EAM_Force_cta_boxILi1EEv5sim_t' : regs=50, lmem=0, smem=0, cmem=620
GPGPU-Sim PTX: Kernel '_Z17EAM_Force_cta_boxILi3EEv5sim_t' : regs=42, lmem=0, smem=0, cmem=620
GPGPU-Sim PTX: Kernel '_Z11EAM_Force_25sim_t' : regs=21, lmem=0, smem=0, cmem=608
GPGPU-Sim PTX: Kernel '_Z21EAM_Force_cta_box_aggILi1EEv5sim_t' : regs=56, lmem=0, smem=0, cmem=620
GPGPU-Sim PTX: Kernel '_Z21EAM_Force_cta_box_aggILi3EEv5sim_t' : regs=47, lmem=0, smem=0, cmem=620
GPGPU-Sim PTX: Kernel '_Z17copy_halos_kernel5sim_t' : regs=18, lmem=0, smem=0, cmem=608
GPGPU-Sim PTX: Kernel '_Z31EAM_Force_thread_atom_warp_syncILi1EEv5sim_t' : regs=32, lmem=0, smem=0, cmem=620
GPGPU-Sim PTX: Kernel '_Z31EAM_Force_thread_atom_warp_syncILi3EEv5sim_t' : regs=32, lmem=0, smem=0, cmem=620
GPGPU-Sim PTX: Kernel '_Z20LJ_Force_thread_atom5sim_t' : regs=32, lmem=0, smem=0, cmem=652
GPGPU-Sim PTX: removing ptxinfo using "rm -f _ptx_6UlUZM _ptx2_lEuICq _ptx_6UlUZMinfo"
GPGPU-Sim PTX: loading globals with explicit initializers... 
GPGPU-Sim PTX: finished loading globals (0 bytes total).
GPGPU-Sim PTX: loading constants with explicit initializers...  done.
GPGPU-Sim PTX: __cudaRegisterFunction _Z17EAM_Force_cta_boxILi3EEv5sim_t : hostFun 0x0x408b90, fat_cubin_handle = 2
GPGPU-Sim PTX: __cudaRegisterFunction _Z31EAM_Force_thread_atom_warp_syncILi3EEv5sim_t : hostFun 0x0x408bb0, fat_cubin_handle = 2
GPGPU-Sim PTX: __cudaRegisterFunction _Z21EAM_Force_thread_atomILi3EEv5sim_t : hostFun 0x0x408bd0, fat_cubin_handle = 2
GPGPU-Sim PTX: __cudaRegisterFunction _Z21EAM_Force_cta_box_aggILi1EEv5sim_t : hostFun 0x0x408bf0, fat_cubin_handle = 2
GPGPU-Sim PTX: __cudaRegisterFunction _Z17EAM_Force_cta_boxILi1EEv5sim_t : hostFun 0x0x408c10, fat_cubin_handle = 2
GPGPU-Sim PTX: __cudaRegisterFunction _Z31EAM_Force_thread_atom_warp_syncILi1EEv5sim_t : hostFun 0x0x408c30, fat_cubin_handle = 2
GPGPU-Sim PTX: __cudaRegisterFunction _Z21EAM_Force_thread_atomILi1EEv5sim_t : hostFun 0x0x408c50, fat_cubin_handle = 2
GPGPU-Sim PTX: __cudaRegisterFunction _Z17copy_halos_kernel5sim_t : hostFun 0x0x408700, fat_cubin_handle = 2
GPGPU-Sim PTX: __cudaRegisterFunction _Z11EAM_Force_25sim_t : hostFun 0x0x408760, fat_cubin_handle = 2
GPGPU-Sim PTX: __cudaRegisterFunction _Z20LJ_Force_thread_atom5sim_t : hostFun 0x0x4087c0, fat_cubin_handle = 2
  Precision = double
Command line params:
  Method = thread_atom_warp_sync
  Input file = 
  EAM flag = 1
  Potential dir = pots
  Potential name = ag
  Periodic = 1
  Use GPU = 1
  Number of unit cells = 6 x 6 x 6
  Box factor = 1
  Simulation temperature = 0
  Deformation gradient = 1
EAM potential values:
  cutoff = 5.542000e+00
  mass = 1.079000e+02
  lattice = 4.090000e+00
  phi potentials = 3000
nbx(0): size = 6, bounds = 2.454000e+01, cutoff = 5.542000e+00, box factor = 1.000000e+00, strain = 1.000000e+00
nbx(1): size = 6, bounds = 2.454000e+01, cutoff = 5.542000e+00, box factor = 1.000000e+00, strain = 1.000000e+00
nbx(2): size = 6, bounds = 2.454000e+01, cutoff = 5.542000e+00, box factor = 1.000000e+00, strain = 1.000000e+00
Initial condition set
Phi range = [1.001514e+00 .. 5.542000e+00]
Generating Chebychev coefficients: phi, rho, f
Total atoms = 864
Box factor = (1.107001e+00, 1.107001e+00, 1.107001e+00)
dt = 2.187758e+01
Atom count per box range = [13 .. 14]
EAM potential sizes:
  rho = 24048
  phi = 24048
  F = 18056
Device memory allocated
Data copied to device

GPGPU-Sim PTX: cudaLaunch for 0x0x408c30 (mode=performance simulation) on stream 0
GPGPU-Sim PTX: pushing kernel '_Z31EAM_Force_thread_atom_warp_syncILi1EEv5sim_t' to stream 0, gridDim= (7,1,1) blockDim = (128,1,1) 
kernel '_Z31EAM_Force_thread_atom_warp_syncILi1EEv5sim_t' transfer to GPU hardware scheduler
GPGPU-Sim uArch: Shader 1 bind to kernel 1 '_Z31EAM_Force_thread_atom_warp_syncILi1EEv5sim_t'
GPGPU-Sim uArch: CTA/core = 8, limited by: regs cta_limit
GPGPU-Sim uArch: core:  1, cta: 0 initialized @(1,0)
GPGPU-Sim uArch: Shader 2 bind to kernel 1 '_Z31EAM_Force_thread_atom_warp_syncILi1EEv5sim_t'
GPGPU-Sim uArch: core:  2, cta: 0 initialized @(1,0)
GPGPU-Sim uArch: Shader 3 bind to kernel 1 '_Z31EAM_Force_thread_atom_warp_syncILi1EEv5sim_t'
GPGPU-Sim uArch: core:  3, cta: 0 initialized @(1,0)
GPGPU-Sim uArch: Shader 4 bind to kernel 1 '_Z31EAM_Force_thread_atom_warp_syncILi1EEv5sim_t'
GPGPU-Sim uArch: core:  4, cta: 0 initialized @(1,0)
GPGPU-Sim uArch: Shader 5 bind to kernel 1 '_Z31EAM_Force_thread_atom_warp_syncILi1EEv5sim_t'
GPGPU-Sim uArch: core:  5, cta: 0 initialized @(1,0)
GPGPU-Sim uArch: Shader 6 bind to kernel 1 '_Z31EAM_Force_thread_atom_warp_syncILi1EEv5sim_t'
GPGPU-Sim uArch: core:  6, cta: 0 initialized @(1,0)
GPGPU-Sim uArch: Shader 7 bind to kernel 1 '_Z31EAM_Force_thread_atom_warp_syncILi1EEv5sim_t'
GPGPU-Sim uArch: core:  7, cta: 0 initialized @(1,0)
GPGPU-Sim uArch: cycles simulated: 500  inst.: 3584 (ipc= 7.2) sim_rate=3584 (inst/sec) elapsed = 0:0:00:01 / Wed Mar 12 13:35:10 2014
GPGPU-Sim uArch: cycles simulated: 4000  inst.: 54688 (ipc=13.7) sim_rate=27344 (inst/sec) elapsed = 0:0:00:02 / Wed Mar 12 13:35:11 2014
GPGPU-Sim PTX: 100000 instructions simulated : ctaid=(4,0,0) tid=(63,0,0)
GPGPU-Sim PTX: 200000 instructions simulated : ctaid=(4,0,0) tid=(127,0,0)
GPGPU-Sim uArch: cycles simulated: 9000  inst.: 289694 (ipc=32.2) sim_rate=96564 (inst/sec) elapsed = 0:0:00:03 / Wed Mar 12 13:35:12 2014
GPGPU-Sim PTX: 300000 instructions simulated : ctaid=(0,0,0) tid=(81,0,0)
GPGPU-Sim PTX: 400000 instructions simulated : ctaid=(3,0,0) tid=(45,0,0)
GPGPU-Sim uArch: cycles simulated: 15500  inst.: 439464 (ipc=28.4) sim_rate=109866 (inst/sec) elapsed = 0:0:00:04 / Wed Mar 12 13:35:13 2014
GPGPU-Sim PTX: 500000 instructions simulated : ctaid=(6,0,0) tid=(43,0,0)
GPGPU-Sim PTX: 600000 instructions simulated : ctaid=(5,0,0) tid=(19,0,0)
GPGPU-Sim uArch: cycles simulated: 21000  inst.: 626676 (ipc=29.8) sim_rate=125335 (inst/sec) elapsed = 0:0:00:05 / Wed Mar 12 13:35:14 2014
GPGPU-Sim PTX: 700000 instructions simulated : ctaid=(0,0,0) tid=(27,0,0)
GPGPU-Sim PTX: 800000 instructions simulated : ctaid=(4,0,0) tid=(87,0,0)
GPGPU-Sim uArch: cycles simulated: 26000  inst.: 804947 (ipc=31.0) sim_rate=134157 (inst/sec) elapsed = 0:0:00:06 / Wed Mar 12 13:35:15 2014
GPGPU-Sim PTX: 900000 instructions simulated : ctaid=(4,0,0) tid=(45,0,0)
GPGPU-Sim PTX: 1000000 instructions simulated : ctaid=(4,0,0) tid=(82,0,0)
GPGPU-Sim uArch: cycles simulated: 31500  inst.: 977998 (ipc=31.0) sim_rate=139714 (inst/sec) elapsed = 0:0:00:07 / Wed Mar 12 13:35:16 2014
GPGPU-Sim PTX: 1100000 instructions simulated : ctaid=(4,0,0) tid=(30,0,0)
GPGPU-Sim PTX: 1200000 instructions simulated : ctaid=(6,0,0) tid=(91,0,0)
GPGPU-Sim uArch: cycles simulated: 36500  inst.: 1240468 (ipc=34.0) sim_rate=155058 (inst/sec) elapsed = 0:0:00:08 / Wed Mar 12 13:35:17 2014
GPGPU-Sim PTX: 1300000 instructions simulated : ctaid=(5,0,0) tid=(113,0,0)
GPGPU-Sim PTX: 1400000 instructions simulated : ctaid=(1,0,0) tid=(48,0,0)
GPGPU-Sim uArch: cycles simulated: 41000  inst.: 1442208 (ipc=35.2) sim_rate=160245 (inst/sec) elapsed = 0:0:00:09 / Wed Mar 12 13:35:18 2014
GPGPU-Sim PTX: 1500000 instructions simulated : ctaid=(5,0,0) tid=(14,0,0)
GPGPU-Sim PTX: 1600000 instructions simulated : ctaid=(2,0,0) tid=(89,0,0)
GPGPU-Sim uArch: cycles simulated: 47500  inst.: 1605098 (ipc=33.8) sim_rate=160509 (inst/sec) elapsed = 0:0:00:10 / Wed Mar 12 13:35:19 2014
GPGPU-Sim PTX: 1700000 instructions simulated : ctaid=(0,0,0) tid=(9,0,0)
GPGPU-Sim PTX: 1800000 instructions simulated : ctaid=(0,0,0) tid=(47,0,0)
GPGPU-Sim uArch: cycles simulated: 53000  inst.: 1755590 (ipc=33.1) sim_rate=159599 (inst/sec) elapsed = 0:0:00:11 / Wed Mar 12 13:35:20 2014
GPGPU-Sim PTX: 1900000 instructions simulated : ctaid=(0,0,0) tid=(110,0,0)
GPGPU-Sim uArch: cycles simulated: 58500  inst.: 1930965 (ipc=33.0) sim_rate=160913 (inst/sec) elapsed = 0:0:00:12 / Wed Mar 12 13:35:21 2014
GPGPU-Sim PTX: 2000000 instructions simulated : ctaid=(5,0,0) tid=(14,0,0)
GPGPU-Sim PTX: 2100000 instructions simulated : ctaid=(1,0,0) tid=(1,0,0)
GPGPU-Sim uArch: cycles simulated: 64000  inst.: 2097838 (ipc=32.8) sim_rate=161372 (inst/sec) elapsed = 0:0:00:13 / Wed Mar 12 13:35:22 2014
GPGPU-Sim PTX: 2200000 instructions simulated : ctaid=(4,0,0) tid=(86,0,0)
GPGPU-Sim PTX: 2300000 instructions simulated : ctaid=(4,0,0) tid=(9,0,0)
GPGPU-Sim uArch: cycles simulated: 70000  inst.: 2252538 (ipc=32.2) sim_rate=160895 (inst/sec) elapsed = 0:0:00:14 / Wed Mar 12 13:35:23 2014
GPGPU-Sim PTX: 2400000 instructions simulated : ctaid=(6,0,0) tid=(30,0,0)
GPGPU-Sim uArch: cycles simulated: 75500  inst.: 2429764 (ipc=32.2) sim_rate=161984 (inst/sec) elapsed = 0:0:00:15 / Wed Mar 12 13:35:24 2014
GPGPU-Sim PTX: 2500000 instructions simulated : ctaid=(0,0,0) tid=(39,0,0)
GPGPU-Sim PTX: 2600000 instructions simulated : ctaid=(0,0,0) tid=(26,0,0)
GPGPU-Sim PTX: 2700000 instructions simulated : ctaid=(0,0,0) tid=(25,0,0)
GPGPU-Sim uArch: cycles simulated: 81000  inst.: 2650364 (ipc=32.7) sim_rate=165647 (inst/sec) elapsed = 0:0:00:16 / Wed Mar 12 13:35:25 2014
GPGPU-Sim PTX: 2800000 instructions simulated : ctaid=(4,0,0) tid=(3,0,0)
GPGPU-Sim PTX: 2900000 instructions simulated : ctaid=(3,0,0) tid=(17,0,0)
GPGPU-Sim uArch: cycles simulated: 86000  inst.: 2878632 (ipc=33.5) sim_rate=169331 (inst/sec) elapsed = 0:0:00:17 / Wed Mar 12 13:35:26 2014
GPGPU-Sim PTX: 3000000 instructions simulated : ctaid=(2,0,0) tid=(92,0,0)
GPGPU-Sim PTX: 3100000 instructions simulated : ctaid=(6,0,0) tid=(70,0,0)
GPGPU-Sim uArch: cycles simulated: 91000  inst.: 3049923 (ipc=33.5) sim_rate=169440 (inst/sec) elapsed = 0:0:00:18 / Wed Mar 12 13:35:27 2014
GPGPU-Sim PTX: 3200000 instructions simulated : ctaid=(5,0,0) tid=(34,0,0)
GPGPU-Sim PTX: 3300000 instructions simulated : ctaid=(3,0,0) tid=(75,0,0)
GPGPU-Sim uArch: cycles simulated: 96500  inst.: 3224289 (ipc=33.4) sim_rate=169699 (inst/sec) elapsed = 0:0:00:19 / Wed Mar 12 13:35:28 2014
[...]
16779499 1 1366 2432 2  2
16779594 1 1366 3328 1  1
16779595 1 1366 3552 1  1
16779606 0 1366 3680 1  1
16779607 0 1366 3712 1  1
16779618 1 1366 3584 1  1
16779619 1 1366 3712 1  1
16779630 0 1366 3840 1  1
16779631 0 1366 3968 1  1
16779642 1 1366 3840 1  1
16779666 3 1366 0 1  1
16779667 3 1366 128 1  1
16779679 2 1366 448 1  1
16779702 2 1366 544 1  1
16779703 2 1366 640 1  1
16779726 2 1366 864 1  1
16779727 2 1366 960 1  1
16779738 3 1366 768 1  1
16779822 2 1366 1792 1  1
16785678 0 1368 2816 1  1
16785679 0 1368 2944 1  1
16785690 1 1368 2816 1  1
16785691 1 1368 2944 1  1
16785702 0 1368 3072 1  1
16785786 1 1368 3840 1  1
16785787 1 1368 3968 1  1
16785798 2 1368 0 1  1
16785799 2 1368 128 1  1
16785810 3 1368 0 1  1
16785906 3 1368 1024 0 2  2
16785907 3 1368 1152 0 2  2
16785918 2 1368 1280 0 2  2
16785919 2 1368 1408 0 2  2
16785930 3 1368 1280 0 0 2  2
16785931 3 1368 1408 0 0 2  2
16785942 2 1368 1536 0 2  2
16785943 2 1368 1664 0 2  2
16785954 3 1368 1536 0 2  2
16785955 3 1368 1664 0 2  2
16785966 2 1368 1792 0 0 2  2
16785967 2 1368 1920 0 0 2  2
16785978 3 1368 1792 0 2  2
16785979 3 1368 1920 0 2  2
16785990 2 1368 2048 0 2  2
16785991 2 1368 2176 0 2  2
16786002 3 1368 2048 0 0 2  2
16786003 3 1368 2176 0 0 2  2
16786014 2 1368 2304 0 2  2
16786015 2 1368 2432 0 2  2
16786026 3 1368 2304 0 2  2
16786027 3 1368 2432 0 2  2
16786038 2 1368 2560 0 0 2  2
16786039 2 1368 2688 0 0 2  2
16786050 3 1368 2560 0 0 2  2
16786051 3 1368 2688 0 0 2  2
16786062 2 1368 2816 0 0 2  2
16786063 2 1368 2944 0 0 2  2
16786074 3 1368 2816 0 0 2  2
16786075 3 1368 2944 0 0 2  2
16786086 2 1368 3072 0 0 2  2
16786087 2 1368 3200 0 0 2  2
16786098 3 1368 3072 0 0 2  2
16786099 3 1368 3200 0 0 2  2
16786110 2 1368 3328 0 0 2  2
16786111 2 1368 3456 0 0 2  2
16786122 3 1368 3328 2  2
16786123 3 1368 3456 2  2
16786134 2 1368 3584 2  2
16786135 2 1368 3712 2  2
16786158 2 1368 3840 2  2
16786159 2 1368 3968 2  2
16786170 3 1368 3840 2  2
16786171 3 1368 3968 2  2
16786194 5 1368 0 2  2
16786195 5 1368 224 2  2
16786206 4 1368 256 2  2
16786207 4 1368 384 2  2
16786230 4 1368 512 2  2
16786231 4 1368 640 2  2
16786242 5 1368 512 2  2
16786243 5 1368 640 2  2
16786410 5 1368 2304 1  1
16786459 5 1368 3008 1  1
31457322 1 2048 256 0 0 1  1
31457323 1 2048 416 0 0 1  1
31457346 1 2048 512 1  1
31457347 1 2048 648 1  1
31457442 1 2048 1544 0 0 0 1  1
31457443 1 2048 1664 0 0 0 1  1
Memory Partition 4: 
Cache L2_bank_008:
MSHR contents

Cache L2_bank_009:
MSHR contents

In Dram Latency Queue (total = 0): 
DRAM[4]: 16 bks, busW=4 BL=8 CL=12, tRRD=2 tCCD=6, tRCD=12 tRAS=28 tRP=12 tRC=40
n_cmd=841402 n_nop=840882 n_act=20 n_pre=10 n_req=246 n_rd=386 n_write=104 bw_util=0.001165
n_activity=3523 dram_eff=0.2782
bk0: 12a 841344i bk1: 32a 841264i bk2: 58a 840650i bk3: 50a 840698i bk4: 30a 841177i bk5: 32a 841217i bk6: 64a 841253i bk7: 64a 841250i bk8: 24a 841338i bk9: 20a 841344i bk10: 0a 841401i bk11: 0a 841402i bk12: 0a 841402i bk13: 0a 841402i bk14: 0a 841405i bk15: 0a 841407i 
dram_util_bins: 0 0 0 0 0 0 0 0 0 0
dram_eff_bins: 0 0 0 0 0 0 0 0 0 0
mrqq: max=12 avg=0.00289636
Cache line map size: 193 
Addr Accesses
16777220 5 1365 2560 1  1
16777221 5 1365 2688 1  1
16777232 4 1365 2816 1  1
16777233 4 1365 2944 1  1
16777244 5 1365 2816 1  1
16777245 5 1365 2944 1  1
16777256 4 1365 3072 1  1
16777257 4 1365 3200 1  1
16777268 5 1365 3072 1  1
16777269 5 1365 3200 1  1
16777280 4 1365 3328 1  1
16777281 4 1365 3456 1  1
16777292 5 1365 3328 1  1
16777293 5 1365 3456 1  1
16777304 4 1365 3584 1  1
16777305 4 1365 3712 1  1
16777316 5 1365 3584 1  1
16777317 5 1365 3712 1  1
16777328 4 1365 3840 1  1
16777329 4 1365 3968 1  1
16777340 5 1365 3840 1  1
16777341 5 1365 3968 1  1
16777352 6 1365 0 1  1
16777353 6 1365 128 1  1
16777364 7 1365 0 1  1
16777365 7 1365 128 1  1
16777376 6 1365 256 1  1
16777377 6 1365 384 1  1
16777388 7 1365 256 1  1
16777389 7 1365 384 1  1
16777400 6 1365 512 1  1
16777401 6 1365 640 1  1
16777412 7 1365 512 1  1
16777413 7 1365 640 1  1
16777424 6 1365 768 1  1
16777425 6 1365 896 1  1
16777436 7 1365 768 1  1
16777437 7 1365 896 1  1
16777448 6 1365 1024 1  1
16777449 6 1365 1152 1  1
16777460 7 1365 1024 1  1
16777461 7 1365 1152 1  1
16777472 6 1365 1280 1  1
16777473 6 1365 1408 1  1
16777484 7 1365 1280 1  1
16777485 7 1365 1408 1  1
16777496 6 1365 1536 1  1
16777497 6 1365 1664 1  1
16777508 7 1365 1536 1  1
16777509 7 1365 1664 1  1
16777520 6 1365 1792 1  1
16777521 6 1365 1920 1  1
16777532 7 1365 1792 1  1
16777533 7 1365 1920 1  1
16777544 6 1365 2048 1  1
16777545 6 1365 2176 1  1
16777556 7 1365 2048 1  1
16777557 7 1365 2176 1  1
16777568 6 1365 2304 1  1
16777569 6 1365 2432 1  1
16777580 7 1365 2304 1  1
16777581 7 1365 2432 1  1
16777592 6 1365 2560 1  1
16777593 6 1365 2688 1  1
16777604 7 1365 2560 1  1
16777605 7 1365 2688 1  1
16777616 6 1365 2816 1  1
16777617 6 1365 2944 1  1
16777628 7 1365 2816 1  1
16777629 7 1365 2944 1  1
16777640 6 1365 3072 1  1
16777641 6 1365 3200 1  1
16777652 7 1365 3072 1  1
16777653 7 1365 3200 1  1
16777664 6 1365 3328 1  1
16777665 6 1365 3456 1  1
16777676 7 1365 3328 1  1
16777677 7 1365 3456 1  1
16777688 6 1365 3584 1  1
16777689 6 1365 3712 1  1
16777700 7 1365 3584 1  1
16777701 7 1365 3712 1  1
16777712 6 1365 3840 1  1
16777713 6 1365 3968 1  1
16777724 7 1365 3840 1  1
16777725 7 1365 3968 1  1
16777736 8 1365 0 1  1
16777737 8 1365 128 1  1
16777748 9 1365 0 1  1
16777749 9 1365 128 1  1
16777760 8 1365 256 1  1
16777761 8 1365 384 1  1
16777772 9 1365 256 1  1
16777773 9 1365 384 1  1
16777784 8 1365 512 1  1
16777785 8 1365 640 1  1
16777796 9 1365 512 1  1
16777797 9 1365 640 1  1
16777808 8 1365 768 1  1
16777809 8 1365 896 1  1
16777820 9 1365 768 1  1
16777821 9 1365 896 1  1
16777832 8 1365 1024 1  1
16777833 8 1365 1152 1  1
16777844 9 1365 1024 1  1
16777845 9 1365 1152 1  1
16777856 8 1365 1280 1  1
16777857 8 1365 1408 1  1
16779596 1 1366 3392 1  1
16779597 1 1366 3488 1  1
16779608 0 1366 3584 1  1
16779609 0 1366 3712 1  1
16779620 1 1366 3680 1  1
16779621 1 1366 3808 1  1
16779632 0 1366 3840 1  1
16779633 0 1366 3968 1  1
16779644 1 1366 3936 1  1
16779645 1 1366 4064 1  1
16779669 3 1366 160 1  1
16779680 2 1366 288 1  1
16779681 2 1366 416 1  1
16779704 2 1366 608 1  1
16779705 2 1366 704 1  1
16779728 2 1366 768 1  1
16779740 3 1366 800 1  1
16779741 3 1366 896 1  1
16785680 0 1368 2816 1  1
16785681 0 1368 2944 1  1
16785692 1 1368 2816 1  1
16785693 1 1368 2944 1  1
16785788 1 1368 3840 1  1
16785789 1 1368 3968 1  1
16785800 2 1368 0 1  1
16785801 2 1368 128 1  1
16785908 3 1368 1024 0 2  2
16785909 3 1368 1152 0 2  2
16785920 2 1368 1280 0 2  2
16785921 2 1368 1408 0 2  2
16785932 3 1368 1280 0 0 2  2
16785933 3 1368 1408 0 0 2  2
16785944 2 1368 1536 0 2  2
16785945 2 1368 1664 0 2  2
16785956 3 1368 1536 0 2  2
16785957 3 1368 1664 0 2  2
16785968 2 1368 1792 0 0 2  2
16785969 2 1368 1920 0 0 2  2
16785980 3 1368 1792 0 2  2
16785981 3 1368 1920 0 2  2
16785992 2 1368 2048 0 2  2
16785993 2 1368 2176 0 2  2
16786004 3 1368 2048 0 0 2  2
16786005 3 1368 2176 0 0 2  2
16786016 2 1368 2304 0 2  2
16786017 2 1368 2432 0 2  2
16786028 3 1368 2304 0 2  2
16786029 3 1368 2432 0 2  2
16786040 2 1368 2560 0 0 2  2
16786041 2 1368 2688 0 0 2  2
16786052 3 1368 2560 0 0 2  2
16786053 3 1368 2688 0 0 2  2
16786064 2 1368 2816 0 0 2  2
16786065 2 1368 2944 0 0 2  2
16786076 3 1368 2816 0 0 2  2
16786077 3 1368 2944 0 0 2  2
16786088 2 1368 3072 0 0 2  2
16786089 2 1368 3200 0 0 2  2
16786100 3 1368 3072 0 0 2  2
16786101 3 1368 3200 0 0 2  2
16786112 2 1368 3328 0 0 2  2
16786113 2 1368 3456 0 0 2  2
16786124 3 1368 3328 2  2
16786125 3 1368 3456 2  2
16786136 2 1368 3584 3  3
16786137 2 1368 3712 2  2
16786160 2 1368 3840 2  2
16786161 2 1368 3968 2  2
16786172 3 1368 3840 2  2
16786173 3 1368 3968 2  2
16786196 5 1368 0 2  2
16786197 5 1368 128 2  2
16786208 4 1368 256 2  2
16786209 4 1368 384 2  2
16786232 4 1368 512 2  2
16786233 4 1368 640 2  2
16786244 5 1368 512 2  2
16786245 5 1368 640 2  2
16786497 4 1368 3520 1  1
31457324 1 2048 256 0 0 1  1
31457325 1 2048 384 0 0 1  1
31457348 1 2048 520 1  1
31457349 1 2048 648 1  1
31457444 1 2048 1536 0 0 0 1  1
31457445 1 2048 1672 0 0 0 1  1
Memory Partition 5: 
Cache L2_bank_010:
MSHR contents

Cache L2_bank_011:
MSHR contents

In Dram Latency Queue (total = 0): 
DRAM[5]: 16 bks, busW=4 BL=8 CL=12, tRRD=2 tCCD=6, tRCD=12 tRAS=28 tRP=12 tRC=40
n_cmd=841402 n_nop=840692 n_act=23 n_pre=9 n_req=345 n_rd=490 n_write=188 bw_util=0.001612
n_activity=4072 dram_eff=0.333
bk0: 30a 841092i bk1: 46a 841022i bk2: 54a 840645i bk3: 48a 840663i bk4: 20a 841327i bk5: 24a 841289i bk6: 64a 841218i bk7: 64a 841110i bk8: 24a 841326i bk9: 20a 841337i bk10: 0a 841399i bk11: 0a 841402i bk12: 32a 840954i bk13: 32a 841051i bk14: 16a 841100i bk15: 16a 841170i 
dram_util_bins: 0 0 0 0 0 0 0 0 0 0
dram_eff_bins: 0 0 0 0 0 0 0 0 0 0
mrqq: max=16 avg=0.0120097
Cache line map size: 245 
Addr Accesses
16777222 5 1365 2560 1  1
16777223 5 1365 2688 1  1
16777234 4 1365 2816 1  1
16777235 4 1365 2944 1  1
16777246 5 1365 2816 1  1
16777247 5 1365 2944 1  1
16777258 4 1365 3072 1  1
16777259 4 1365 3200 1  1
16777270 5 1365 3072 1  1
16777271 5 1365 3200 1  1
16777282 4 1365 3328 1  1
16777283 4 1365 3456 1  1
16777294 5 1365 3328 1  1
16777295 5 1365 3552 1  1
16777306 4 1365 3584 1  1
16777307 4 1365 3712 1  1
16777318 5 1365 3584 1  1
16777319 5 1365 3712 1  1
16777330 4 1365 3840 1  1
16777331 4 1365 3968 1  1
16777342 5 1365 3840 1  1
16777343 5 1365 3968 1  1
16777354 6 1365 0 1  1
16777355 6 1365 128 1  1
16777366 7 1365 0 1  1
16777367 7 1365 128 1  1
16777378 6 1365 256 1  1
16777379 6 1365 384 1  1
16777390 7 1365 256 1  1
16777391 7 1365 384 1  1
16777402 6 1365 512 1  1
16777403 6 1365 640 1  1
16777414 7 1365 512 1  1
16777415 7 1365 640 1  1
16777426 6 1365 768 1  1
16777427 6 1365 896 1  1
16777438 7 1365 832 1  1
16777439 7 1365 896 1  1
16777450 6 1365 1024 1  1
16777451 6 1365 1152 1  1
16777462 7 1365 1024 1  1
16777463 7 1365 1152 1  1
16777474 6 1365 1280 1  1
16777475 6 1365 1408 1  1
16777486 7 1365 1280 1  1
16777487 7 1365 1408 1  1
16777498 6 1365 1536 1  1
16777499 6 1365 1664 1  1
16777510 7 1365 1536 1  1
16777511 7 1365 1760 1  1
16777522 6 1365 1792 1  1
16777523 6 1365 1920 1  1
16777534 7 1365 1792 1  1
16777535 7 1365 1920 1  1
16777546 6 1365 2048 1  1
16777547 6 1365 2176 1  1
16777558 7 1365 2048 1  1
16777559 7 1365 2240 1  1
16777570 6 1365 2304 1  1
16777571 6 1365 2432 1  1
16777582 7 1365 2304 1  1
16777583 7 1365 2432 1  1
16777594 6 1365 2560 1  1
16777595 6 1365 2688 1  1
16777606 7 1365 2560 1  1
16777607 7 1365 2688 1  1
16777618 6 1365 2816 1  1
16777619 6 1365 2944 1  1
16777630 7 1365 2816 1  1
16777631 7 1365 2944 1  1
16777642 6 1365 3072 1  1
16777643 6 1365 3200 1  1
16777654 7 1365 3136 1  1
16777655 7 1365 3200 1  1
16777666 6 1365 3328 1  1
16777667 6 1365 3456 1  1
16777678 7 1365 3328 1  1
16777679 7 1365 3456 1  1
16777690 6 1365 3584 1  1
16777691 6 1365 3712 1  1
16777702 7 1365 3584 1  1
16777703 7 1365 3712 1  1
16777714 6 1365 3840 1  1
16777715 6 1365 3968 1  1
16777726 7 1365 3840 1  1
16777727 7 1365 4064 1  1
16777738 8 1365 0 1  1
16777739 8 1365 128 1  1
16777750 9 1365 0 1  1
16777751 9 1365 128 1  1
16777762 8 1365 256 1  1
16777763 8 1365 384 1  1
16777774 9 1365 256 1  1
16777775 9 1365 448 1  1
16777786 8 1365 512 1  1
16777787 8 1365 640 1  1
16777798 9 1365 512 1  1
16777799 9 1365 640 1  1
16777810 8 1365 768 1  1
16777811 8 1365 896 1  1
16777822 9 1365 768 1  1
16777823 9 1365 896 1  1
16777834 8 1365 1024 1  1
16777835 8 1365 1152 1  1
16777846 9 1365 1024 1  1
16777847 9 1365 1152 1  1
16777858 8 1365 1280 1  1
16777859 8 1365 1408 1  1
16778518 13 1365 0 2  2
16778519 13 1365 128 2  2
16778530 12 1365 256 2  2
16778531 12 1365 384 2  2
16778554 12 1365 512 2  2
16778555 12 1365 640 2  2
16778566 13 1365 512 2  2
16778567 13 1365 640 2  2
16778590 13 1365 768 2  2
16778591 13 1365 992 2  2
16778602 12 1365 1024 2  2
16778603 12 1365 1152 2  2
16778626 12 1365 1280 2  2
16778627 12 1365 1408 2  2
16778638 13 1365 1280 2  2
16778639 13 1365 1408 2  2
16778734 13 1365 2304 2  2
16778735 13 1365 2432 2  2
16778746 12 1365 2560 2  2
16778747 12 1365 2688 2  2
16778770 12 1365 2816 2  2
16778771 12 1365 2944 2  2
16778782 13 1365 2816 2  2
16778783 13 1365 2944 2  2
16778806 13 1365 3072 2  2
16778807 13 1365 3296 2  2
16778818 12 1365 3328 2  2
16778819 12 1365 3456 2  2
16778842 12 1365 3584 2  2
16778843 12 1365 3712 2  2
16778854 13 1365 3584 2  2
16778855 13 1365 3712 2  2
16778950 15 1365 512 2  2
16778951 15 1365 640 2  2
16778962 14 1365 768 2  2
16778963 14 1365 896 2  2
16778986 14 1365 1024 2  2
16778987 14 1365 1152 2  2
16778998 15 1365 1024 2  2
16778999 15 1365 1152 2  2
16779022 15 1365 1280 2  2
16779023 15 1365 1504 2  2
16779034 14 1365 1536 2  2
16779035 14 1365 1664 2  2
16779058 14 1365 1792 2  2
16779059 14 1365 1920 2  2
16779070 15 1365 1792 2  2
16779071 15 1365 1920 2  2
16779382 1 1366 1024 2  2
16779383 1 1366 1152 2  2
16779394 0 1366 1280 2  2
16779395 0 1366 1408 2  2
16779418 0 1366 1536 2  2
16779419 0 1366 1664 2  2
16779430 1 1366 1536 2  2
16779431 1 1366 1664 2  2
16779454 1 1366 1792 2  2
16779455 1 1366 2016 2  2
16779466 0 1366 2048 2  2
16779467 0 1366 2176 2  2
16779490 0 1366 2304 2  2
16779491 0 1366 2432 2  2
16779502 1 1366 2304 2  2
16779503 1 1366 2432 2  2
16779598 1 1366 3328 1  1
16779599 1 1366 3456 1  1
16779610 0 1366 3648 1  1
16779611 0 1366 3808 1  1
16779622 1 1366 3584 1  1
16779623 1 1366 3712 1  1
16779634 0 1366 3840 1  1
16779635 0 1366 4032 1  1
16779646 1 1366 3904 1  1
16779647 1 1366 3968 1  1
16779670 3 1366 32 1  1
16779671 3 1366 224 1  1
16779682 2 1366 256 1  1
16779694 3 1366 352 1  1
16779695 3 1366 448 1  1
16779706 2 1366 576 1  1
16779707 2 1366 672 1  1
16779730 2 1366 768 1  1
16779731 2 1366 896 1  1
16779742 3 1366 768 1  1
16779743 3 1366 896 1  1
16779826 2 1366 1824 1  1
16779827 2 1366 1920 1  1
16785682 0 1368 2816 1  1
16785683 0 1368 2944 1  1
16785694 1 1368 2816 1  1
16785695 1 1368 2944 1  1
16785790 1 1368 3840 1  1
16785791 1 1368 3968 1  1
16785802 2 1368 0 1  1
16785803 2 1368 128 1  1
16785910 3 1368 1024 0 0 2  2
16785911 3 1368 1152 0 0 2  2
16785922 2 1368 1280 0 0 2  2
16785923 2 1368 1408 0 0 2  2
16785934 3 1368 1280 0 0 2  2
16785935 3 1368 1408 0 0 2  2
16785946 2 1368 1536 0 0 2  2
16785947 2 1368 1664 0 0 2  2
16785958 3 1368 1536 0 0 2  2
16785959 3 1368 1664 0 0 2  2
16785970 2 1368 1792 0 0 2  2
16785971 2 1368 1920 0 0 2  2
16785982 3 1368 1792 0 0 2  2
16785983 3 1368 1920 0 0 2  2
16785994 2 1368 2048 0 0 2  2
16785995 2 1368 2176 0 0 2  2
16786006 3 1368 2048 0 0 2  2
16786007 3 1368 2176 0 0 2  2
16786018 2 1368 2304 0 0 2  2
16786019 2 1368 2432 0 0 2  2
16786030 3 1368 2304 0 0 2  2
16786031 3 1368 2432 0 0 2  2
16786042 2 1368 2560 0 0 2  2
16786043 2 1368 2688 0 0 2  2
16786054 3 1368 2560 0 0 2  2
16786055 3 1368 2688 0 0 2  2
16786066 2 1368 2816 0 0 2  2
16786067 2 1368 2944 0 0 2  2
16786078 3 1368 2816 0 0 2  2
16786079 3 1368 2944 0 0 2  2
16786090 2 1368 3072 0 0 2  2
16786091 2 1368 3200 0 0 2  2
16786102 3 1368 3072 0 0 2  2
16786103 3 1368 3200 0 0 2  2
16786114 2 1368 3328 0 0 2  2
16786115 2 1368 3456 0 0 2  2
31457315 0 2048 440 0 1  1
31457326 1 2048 336 0 0 1  1
31457350 1 2048 520 1  1
31457351 1 2048 648 1  1
31457446 1 2048 1544 0 0 0 1  1
31457447 1 2048 1752 0 0 0 1  1

========= L2 cache stats =========
L2_cache_bank[0]: Access = 1763, Miss = 132, Miss_rate = 0.075, Pending_hits = 22, Reservation_fails = 413
L2_cache_bank[1]: Access = 1782, Miss = 132, Miss_rate = 0.074, Pending_hits = 24, Reservation_fails = 610
L2_cache_bank[2]: Access = 1189, Miss = 99, Miss_rate = 0.083, Pending_hits = 15, Reservation_fails = 209
L2_cache_bank[3]: Access = 1102, Miss = 100, Miss_rate = 0.091, Pending_hits = 20, Reservation_fails = 351
L2_cache_bank[4]: Access = 1720, Miss = 123, Miss_rate = 0.072, Pending_hits = 14, Reservation_fails = 114
L2_cache_bank[5]: Access = 1609, Miss = 129, Miss_rate = 0.080, Pending_hits = 27, Reservation_fails = 449
L2_cache_bank[6]: Access = 1737, Miss = 127, Miss_rate = 0.073, Pending_hits = 14, Reservation_fails = 0
L2_cache_bank[7]: Access = 2087, Miss = 133, Miss_rate = 0.064, Pending_hits = 24, Reservation_fails = 316
L2_cache_bank[8]: Access = 1021, Miss = 94, Miss_rate = 0.092, Pending_hits = 11, Reservation_fails = 109
L2_cache_bank[9]: Access = 1082, Miss = 99, Miss_rate = 0.091, Pending_hits = 26, Reservation_fails = 324
L2_cache_bank[10]: Access = 1868, Miss = 120, Miss_rate = 0.064, Pending_hits = 6, Reservation_fails = 125
L2_cache_bank[11]: Access = 1669, Miss = 125, Miss_rate = 0.075, Pending_hits = 28, Reservation_fails = 481
L2_total_cache_accesses = 18629
L2_total_cache_misses = 1413
L2_total_cache_miss_rate = 0.0758
L2_total_cache_pending_hits = 231
L2_total_cache_reservation_fails = 3501
L2_total_cache_breakdown:
	L2_cache_stats_breakdown[GLOBAL_ACC_R][HIT] = 15777
	L2_cache_stats_breakdown[GLOBAL_ACC_R][HIT_RESERVED] = 106
	L2_cache_stats_breakdown[GLOBAL_ACC_R][MISS] = 834
	L2_cache_stats_breakdown[GLOBAL_ACC_R][RESERVATION_FAIL] = 525
	L2_cache_stats_breakdown[CONST_ACC_R][HIT] = 76
	L2_cache_stats_breakdown[CONST_ACC_R][HIT_RESERVED] = 9
	L2_cache_stats_breakdown[CONST_ACC_R][MISS] = 3
	L2_cache_stats_breakdown[CONST_ACC_R][RESERVATION_FAIL] = 309
	L2_cache_stats_breakdown[GLOBAL_ACC_W][HIT] = 898
	L2_cache_stats_breakdown[GLOBAL_ACC_W][HIT_RESERVED] = 14
	L2_cache_stats_breakdown[GLOBAL_ACC_W][MISS] = 536
	L2_cache_stats_breakdown[INST_ACC_R][HIT] = 234
	L2_cache_stats_breakdown[INST_ACC_R][HIT_RESERVED] = 102
	L2_cache_stats_breakdown[INST_ACC_R][MISS] = 40
	L2_cache_stats_breakdown[INST_ACC_R][RESERVATION_FAIL] = 2667
L2_cache_data_port_util = 0.009
L2_cache_fill_port_util = 0.001

icnt_total_pkts_mem_to_simt=87177
icnt_total_pkts_simt_to_mem=23901
LD_mem_lat_dist  0 0 0 0 0 0 0 0 0 0 0 0 0 0 0 0 0 0 0 0 0 0 0 0 0 0 0
ST_mem_lat_dist  0 0 0 0 0 0 0 0 0 0 0 0 0 0 0 0 0 0 0 0 0 0 0 0 0 0 0
----------------------------Interconnect-DETAILS--------------------------------
Class 0:
Packet latency average = nan
	minimum = nan
	maximum = nan
Network latency average = nan
	minimum = nan
	maximum = nan
Slowest packet = -1
Flit latency average = nan
	minimum = nan
	maximum = nan
Slowest flit = -1
Fragmentation average = nan
	minimum = nan
	maximum = nan
Injected packet rate average = nan
	minimum = nan (at node 0)
	maximum = nan (at node 0)
Accepted packet rate average = nan
	minimum = nan (at node 0)
	maximum = nan (at node 0)
Injected flit rate average = nan
	minimum = nan (at node 0)
	maximum = nan (at node 0)
Accepted flit rate average= nan
	minimum = nan (at node 0)
	maximum = nan (at node 0)
Injected packet length average = nan
Accepted packet length average = nan
Total in-flight flits = 0 (0 measured)
====== Overall Traffic Statistics ======
====== Traffic class 0 ======
Packet latency average = nan (1 samples)
	minimum = nan (1 samples)
	maximum = nan (1 samples)
Network latency average = nan (1 samples)
	minimum = nan (1 samples)
	maximum = nan (1 samples)
Flit latency average = nan (1 samples)
	minimum = nan (1 samples)
	maximum = nan (1 samples)
Fragmentation average = nan (1 samples)
	minimum = nan (1 samples)
	maximum = nan (1 samples)
Injected packet rate average = nan (1 samples)
	minimum = nan (1 samples)
	maximum = nan (1 samples)
Accepted packet rate average = nan (1 samples)
	minimum = nan (1 samples)
	maximum = nan (1 samples)
Injected flit rate average = nan (1 samples)
	minimum = nan (1 samples)
	maximum = nan (1 samples)
Accepted flit rate average = nan (1 samples)
	minimum = nan (1 samples)
	maximum = nan (1 samples)
Injected packet size average = nan (1 samples)
Accepted packet size average = nan (1 samples)
Hops average = nan (1 samples)
----------------------------END-of-Interconnect-DETAILS-------------------------
